@<TRIPOS>MOLECULE
olaparib_entry_00001_conf_15
55 59 1
SMALL
NO_CHARGES


@<TRIPOS>ATOM
      1 N         -17.8758  -40.8309   -1.5991 N.am      1 UNL1        0.0000
      2 N         -17.8097  -38.3382   -0.8707 N.am      1 UNL1        0.0000
      3 N         -14.1105  -42.9562    1.3349 N.2       1 UNL1        0.0000
      4 N         -13.3171  -41.9221    1.1936 N.am      1 UNL1        0.0000
      5 C         -12.5721  -41.7114    0.0994 C.2       1 UNL1        0.0000
      6 C         -12.6375  -42.6236   -0.9337 C.ar      1 UNL1        0.0000
      7 C         -11.8681  -42.4630   -2.0867 C.ar      1 UNL1        0.0000
      8 C         -11.9336  -43.3982   -3.0970 C.ar      1 UNL1        0.0000
      9 C         -12.7791  -44.4699   -2.9030 C.ar      1 UNL1        0.0000
     10 C         -13.5479  -44.6422   -1.7641 C.ar      1 UNL1        0.0000
     11 C         -13.4777  -43.7096   -0.7715 C.ar      1 UNL1        0.0000
     12 C         -14.2310  -43.9041    0.3551 C.2       1 UNL1        0.0000
     13 C         -15.1952  -44.9665    0.6094 C.3       1 UNL1        0.0000
     14 C         -16.5757  -44.4136    0.6857 C.ar      1 UNL1        0.0000
     15 C         -16.9367  -43.5403   -0.3558 C.ar      1 UNL1        0.0000
     16 C         -18.1873  -42.9706   -0.3675 C.ar      1 UNL1        0.0000
     17 C         -18.5958  -42.0449   -1.4480 C.2       1 UNL1        0.0000
     18 C         -18.2370  -39.9152   -2.6326 C.3       1 UNL1        0.0000
     19 C         -17.8661  -38.4855   -2.3019 C.3       1 UNL1        0.0000
     20 C         -16.8073  -39.1383   -0.1586 C.3       1 UNL1        0.0000
     21 C         -16.7797  -40.5479   -0.6912 C.3       1 UNL1        0.0000
     22 C         -18.6616  -37.4792   -0.1702 C.2       1 UNL1        0.0000
     23 C         -19.7157  -36.6314   -0.7332 C.3       1 UNL1        0.0000
     24 C         -19.2910  -35.2541   -1.1900 C.3       1 UNL1        0.0000
     25 C         -20.1701  -35.4041   -0.0282 C.3       1 UNL1        0.0000
     26 C         -19.1334  -43.2081    0.6013 C.ar      1 UNL1        0.0000
     27 C         -18.7789  -44.0630    1.6204 C.ar      1 UNL1        0.0000
     28 C         -17.5033  -44.6452    1.6359 C.ar      1 UNL1        0.0000
     29 O         -11.8066  -40.7255   -0.0551 O.2       1 UNL1        0.0000
     30 O         -18.5223  -37.4121    1.1031 O.2       1 UNL1        0.0000
     31 O         -19.5464  -42.3002   -2.2226 O.2       1 UNL1        0.0000
     32 F         -20.3622  -42.6169    0.5455 F         1 UNL1        0.0000
     33 H         -11.2496  -41.6425   -2.1836 H         1 UNL1        0.0000
     34 H         -11.3751  -43.3010   -3.9583 H         1 UNL1        0.0000
     35 H         -12.8420  -45.1823   -3.6465 H         1 UNL1        0.0000
     36 H         -14.1654  -45.4636   -1.6674 H         1 UNL1        0.0000
     37 H         -14.9559  -45.4451    1.5361 H         1 UNL1        0.0000
     38 H         -15.1515  -45.6721   -0.1940 H         1 UNL1        0.0000
     39 H         -16.2644  -43.3276   -1.1090 H         1 UNL1        0.0000
     40 H         -19.2953  -39.9688   -2.7831 H         1 UNL1        0.0000
     41 H         -17.6975  -40.1937   -3.5143 H         1 UNL1        0.0000
     42 H         -18.6023  -37.8213   -2.7032 H         1 UNL1        0.0000
     43 H         -16.9134  -38.2501   -2.7290 H         1 UNL1        0.0000
     44 H         -17.0495  -39.1611    0.8832 H         1 UNL1        0.0000
     45 H         -15.8439  -38.6961   -0.3042 H         1 UNL1        0.0000
     46 H         -16.8380  -41.2263    0.1343 H         1 UNL1        0.0000
     47 H         -15.8701  -40.6655   -1.2407 H         1 UNL1        0.0000
     48 H         -20.2253  -37.4788   -1.1414 H         1 UNL1        0.0000
     49 H         -19.6754  -34.8510   -2.1038 H         1 UNL1        0.0000
     50 H         -18.3529  -34.7731   -1.3736 H         1 UNL1        0.0000
     51 H         -21.1943  -35.1014   -0.0954 H         1 UNL1        0.0000
     52 H         -20.1308  -35.0673    0.9858 H         1 UNL1        0.0000
     53 H         -19.4529  -44.2755    2.3732 H         1 UNL1        0.0000
     54 H         -17.2629  -45.2824    2.4116 H         1 UNL1        0.0000
     55 H         -13.2666  -41.2675    1.9276 H         1 UNL1        0.0000
@<TRIPOS>BOND
     1    1   18 1
     2    1   21 1
     3    1   17 am
     4    2   19 1
     5    2   20 1
     6    2   22 am
     7    3    4 1
     8    3   12 2
     9    4    5 am
    10    4   55 1
    11    5   29 2
    12    5    6 1
    13    6    7 ar
    14    6   11 ar
    15    7    8 ar
    16    7   33 1
    17    8   34 1
    18    8    9 ar
    19    9   10 ar
    20    9   35 1
    21   10   11 ar
    22   10   36 1
    23   11   12 1
    24   12   13 1
    25   13   37 1
    26   13   38 1
    27   13   14 1
    28   14   15 ar
    29   14   28 ar
    30   15   39 1
    31   15   16 ar
    32   16   26 ar
    33   16   17 1
    34   17   31 2
    35   18   19 1
    36   18   40 1
    37   18   41 1
    38   19   42 1
    39   19   43 1
    40   20   21 1
    41   20   45 1
    42   20   44 1
    43   21   46 1
    44   21   47 1
    45   22   30 2
    46   22   23 1
    47   23   25 1
    48   23   24 1
    49   23   48 1
    50   24   25 1
    51   24   49 1
    52   24   50 1
    53   25   51 1
    54   25   52 1
    55   26   27 ar
    56   26   32 1
    57   27   28 ar
    58   27   53 1
    59   28   54 1
@<TRIPOS>SUBSTRUCTURE
1 UNL1 1
@<TRIPOS>COMMENT
olaparib
PLANTSproteinTorsions
102
4661 131.7963
5386 216.8849
6210 40.8948
5890 104.9281
4461 7.9600
1390 41.0193
2824 236.8393
4339 120.3723
2732 77.4539
4792 286.7032
3407 265.4607
5134 6.4754
6916 76.5134
7370 45.5158
6038 228.4774
7225 14.5357
3592 323.4082
2064 11.5687
2488 18.5995
1253 62.5834
2069 315.2858
2569 60.5687
3058 209.2579
1748 8.3971
1162 126.2117
1509 160.0342
560 229.8951
1627 43.7363
1941 218.5427
3631 214.5227
2381 46.3929
4221 338.2368
4687 26.1583
6983 157.0467
6668 340.9072
7305 52.9788
8693 16.9022
8404 314.4935
9055 209.7964
7052 19.7844
4708 67.7316
2652 44.5753
4332 134.5271
3011 105.4962
2257 199.4607
2778 26.1357
2057 255.7344
192 180.7122
315 180.6864
1085 166.6702
1007 139.6551
1407 205.6423
4816 232.6177
3131 168.5976
4654 278.3603
5144 165.6377
117 278.2349
6 225.6028
259 72.5591
1979 216.5530
2609 117.5818
2623 132.5863
5910 265.6037
5937 161.6143
2062 287.0928
890 219.6397
5008 176.6454
8602 183.7107
8478 91.7330
8300 302.8456
7721 36.7525
8466 113.7685
7852 132.7691
5849 288.4640
6302 283.3579
7439 76.9128
6284 237.9023
6003 321.1552
7165 258.9522
7623 227.9705
8158 268.0002
8667 11.4519
9078 269.9472
8684 40.0194
7666 267.8625
4231 293.7527
1659 95.1314
489 146.3728
238 171.3851
46 167.4074
83 214.4464
254 115.4488
1066 267.6624
2112 212.4531
4047 44.4589
5402 212.4837
2544 91.4736
4670 323.0269
4426 188.3368
5656 84.3211
7040 160.2677
6282 278.2165
PLANTSmolcadARTstart hb
PLANTSmolcadARTstart HB
LINES
PLANTSmolcadARTstart HBCH
LINES
PLANTSmolcadARTstart HB-CHO
LINES
PLANTSmolcadARTend
PLANTSmolcadARTstart HB_WATER
LINES
PLANTSmolcadARTend

PLANTSmolcadARTend

