@<TRIPOS>MOLECULE
olaparib_entry_00001_conf_17
55 59 1
SMALL
NO_CHARGES


@<TRIPOS>ATOM
      1 N         -44.2434  -54.5534  -19.1753 N.am      1 UNL1        0.0000
      2 N         -45.7962  -56.6136  -18.8712 N.am      1 UNL1        0.0000
      3 N         -46.9576  -48.4319  -22.5644 N.2       1 UNL1        0.0000
      4 N         -47.3478  -47.2024  -22.7982 N.am      1 UNL1        0.0000
      5 C         -46.5374  -46.1404  -22.6871 C.2       1 UNL1        0.0000
      6 C         -45.2263  -46.3429  -22.3080 C.ar      1 UNL1        0.0000
      7 C         -44.3457  -45.2709  -22.1578 C.ar      1 UNL1        0.0000
      8 C         -43.0461  -45.4951  -21.7574 C.ar      1 UNL1        0.0000
      9 C         -42.6817  -46.8036  -21.5204 C.ar      1 UNL1        0.0000
     10 C         -43.5449  -47.8769  -21.6651 C.ar      1 UNL1        0.0000
     11 C         -44.8281  -47.6444  -22.0642 C.ar      1 UNL1        0.0000
     12 C         -45.6733  -48.7147  -22.1853 C.2       1 UNL1        0.0000
     13 C         -45.3519  -50.1264  -22.0213 C.3       1 UNL1        0.0000
     14 C         -45.3504  -50.4991  -20.5796 C.ar      1 UNL1        0.0000
     15 C         -44.6372  -51.6673  -20.2568 C.ar      1 UNL1        0.0000
     16 C         -44.5863  -52.0987  -18.9530 C.ar      1 UNL1        0.0000
     17 C         -43.8468  -53.3263  -18.5821 C.2       1 UNL1        0.0000
     18 C         -43.5512  -55.7574  -18.8462 C.3       1 UNL1        0.0000
     19 C         -44.4136  -56.9904  -19.0110 C.3       1 UNL1        0.0000
     20 C         -46.3322  -55.6715  -19.8596 C.3       1 UNL1        0.0000
     21 C         -45.3527  -54.5539  -20.1108 C.3       1 UNL1        0.0000
     22 C         -46.6096  -57.1091  -17.8479 C.2       1 UNL1        0.0000
     23 C         -46.2200  -58.0387  -16.7844 C.3       1 UNL1        0.0000
     24 C         -45.6602  -59.3694  -17.2339 C.3       1 UNL1        0.0000
     25 C         -46.9624  -59.3079  -16.5662 C.3       1 UNL1        0.0000
     26 C         -45.2053  -51.4414  -17.9163 C.ar      1 UNL1        0.0000
     27 C         -45.9032  -50.2980  -18.2335 C.ar      1 UNL1        0.0000
     28 C         -45.9580  -49.8555  -19.5629 C.ar      1 UNL1        0.0000
     29 O         -46.8926  -44.9543  -22.9081 O.2       1 UNL1        0.0000
     30 O         -47.8314  -56.7198  -17.8185 O.2       1 UNL1        0.0000
     31 O         -42.8931  -53.3120  -17.7703 O.2       1 UNL1        0.0000
     32 F         -45.1258  -51.9109  -16.6373 F         1 UNL1        0.0000
     33 H         -44.6676  -44.3089  -22.3472 H         1 UNL1        0.0000
     34 H         -42.3770  -44.7193  -21.6400 H         1 UNL1        0.0000
     35 H         -41.7137  -46.9933  -21.2186 H         1 UNL1        0.0000
     36 H         -43.2226  -48.8387  -21.4743 H         1 UNL1        0.0000
     37 H         -44.3840  -50.3178  -22.4355 H         1 UNL1        0.0000
     38 H         -46.0931  -50.7102  -22.5265 H         1 UNL1        0.0000
     39 H         -44.1536  -52.1993  -20.9970 H         1 UNL1        0.0000
     40 H         -43.2276  -55.6989  -17.8277 H         1 UNL1        0.0000
     41 H         -42.7239  -55.8490  -19.5194 H         1 UNL1        0.0000
     42 H         -44.1591  -57.7096  -18.2612 H         1 UNL1        0.0000
     43 H         -44.2503  -57.4205  -19.9773 H         1 UNL1        0.0000
     44 H         -47.2490  -55.2593  -19.4932 H         1 UNL1        0.0000
     45 H         -46.5029  -56.1929  -20.7782 H         1 UNL1        0.0000
     46 H         -45.8698  -53.6209  -20.0258 H         1 UNL1        0.0000
     47 H         -44.9465  -54.6971  -21.0894 H         1 UNL1        0.0000
     48 H         -45.9300  -57.2342  -16.1417 H         1 UNL1        0.0000
     49 H         -44.8186  -59.7945  -16.7277 H         1 UNL1        0.0000
     50 H         -45.3018  -59.7657  -18.1609 H         1 UNL1        0.0000
     51 H         -47.0693  -59.6971  -15.5751 H         1 UNL1        0.0000
     52 H         -47.9446  -59.6507  -16.8132 H         1 UNL1        0.0000
     53 H         -46.3862  -49.7662  -17.4917 H         1 UNL1        0.0000
     54 H         -46.4884  -48.9954  -19.7736 H         1 UNL1        0.0000
     55 H         -48.2824  -47.0517  -23.0694 H         1 UNL1        0.0000
@<TRIPOS>BOND
     1    1   18 1
     2    1   21 1
     3    1   17 am
     4    2   19 1
     5    2   20 1
     6    2   22 am
     7    3    4 1
     8    3   12 2
     9    4    5 am
    10    4   55 1
    11    5   29 2
    12    5    6 1
    13    6    7 ar
    14    6   11 ar
    15    7    8 ar
    16    7   33 1
    17    8   34 1
    18    8    9 ar
    19    9   10 ar
    20    9   35 1
    21   10   11 ar
    22   10   36 1
    23   11   12 1
    24   12   13 1
    25   13   37 1
    26   13   38 1
    27   13   14 1
    28   14   15 ar
    29   14   28 ar
    30   15   39 1
    31   15   16 ar
    32   16   26 ar
    33   16   17 1
    34   17   31 2
    35   18   19 1
    36   18   40 1
    37   18   41 1
    38   19   42 1
    39   19   43 1
    40   20   21 1
    41   20   45 1
    42   20   44 1
    43   21   46 1
    44   21   47 1
    45   22   30 2
    46   22   23 1
    47   23   25 1
    48   23   24 1
    49   23   48 1
    50   24   25 1
    51   24   49 1
    52   24   50 1
    53   25   51 1
    54   25   52 1
    55   26   27 ar
    56   26   32 1
    57   27   28 ar
    58   27   53 1
    59   28   54 1
@<TRIPOS>SUBSTRUCTURE
1 UNL1 1
@<TRIPOS>COMMENT
olaparib
PLANTSproteinTorsions
102
4661 28.8908
5386 47.7711
6210 5.0280
5890 225.4496
4461 162.9992
1390 54.4594
2824 351.0769
4339 146.4125
2732 127.9377
4792 15.2884
3407 13.6557
5134 350.1190
6916 83.3194
7370 175.6440
6038 84.7849
7225 22.7474
3592 301.5995
2064 52.9273
2488 208.0450
1253 198.1356
2069 118.2405
2569 326.4574
3058 130.5296
1748 172.6101
1162 124.7089
1509 13.6669
560 128.7359
1627 262.6276
1941 86.5527
3631 213.5157
2381 82.4529
4221 97.3975
4687 4.3981
6983 6.4319
6668 209.4228
7305 257.3575
8693 93.4593
8404 81.3097
9055 67.4298
7052 290.7607
4708 29.8378
2652 323.2157
4332 262.9604
3011 0.0396
2257 213.0845
2778 331.7094
2057 45.1824
192 111.2333
315 159.3342
1085 28.2476
1007 121.6982
1407 132.5005
4816 101.2997
3131 44.5716
4654 214.6926
5144 74.8014
117 14.8804
6 207.9734
259 328.8484
1979 129.1396
2609 130.6276
2623 64.6026
5910 266.5518
5937 33.0194
2062 144.8859
890 283.7552
5008 159.2979
8602 90.8718
8478 25.6880
8300 50.7966
7721 202.8212
8466 342.9937
7852 158.7093
5849 254.7823
6302 247.2726
7439 228.9325
6284 106.2233
6003 224.5350
7165 248.7673
7623 263.1722
8158 231.3995
8667 105.6958
9078 270.0028
8684 194.1277
7666 178.3049
4231 262.5847
1659 222.7306
489 73.9730
238 250.4575
46 250.9554
83 188.1954
254 144.2699
1066 274.8665
2112 146.0801
4047 38.1157
5402 276.1552
2544 270.3116
4670 80.3549
4426 75.9315
5656 120.6255
7040 99.9984
6282 241.2366
PLANTSmolcadARTstart hb
PLANTSmolcadARTstart HB
LINES
-47.8314 -56.7198 -17.8185 -48.958 -56.853 -16.406 0 255 0 5
-47.8314 -56.7198 -17.8185 -48.965 -54.951 -18.265 0 255 0 5
PLANTSmolcadARTstart HBCH
LINES
PLANTSmolcadARTstart HB-CHO
LINES
PLANTSmolcadARTend
PLANTSmolcadARTstart HB_WATER
LINES
PLANTSmolcadARTend

PLANTSmolcadARTend

