@<TRIPOS>MOLECULE
olaparib_entry_00001_conf_57
55 59 1
SMALL
NO_CHARGES


@<TRIPOS>ATOM
      1 N          -1.2998  -69.5199    5.7622 N.am      1 UNL1        0.0000
      2 N          -0.0892  -68.1378    3.9258 N.am      1 UNL1        0.0000
      3 N           1.5239  -73.8930    3.9703 N.2       1 UNL1        0.0000
      4 N           1.3542  -74.5854    2.8701 N.am      1 UNL1        0.0000
      5 C           1.9061  -75.7900    2.6672 C.2       1 UNL1        0.0000
      6 C           2.6935  -76.3350    3.6605 C.ar      1 UNL1        0.0000
      7 C           3.3080  -77.5766    3.4932 C.ar      1 UNL1        0.0000
      8 C           4.1077  -78.0917    4.4906 C.ar      1 UNL1        0.0000
      9 C           4.2594  -77.3272    5.6280 C.ar      1 UNL1        0.0000
     10 C           3.6560  -76.0936    5.8073 C.ar      1 UNL1        0.0000
     11 C           2.8646  -75.5941    4.8154 C.ar      1 UNL1        0.0000
     12 C           2.2898  -74.3655    5.0015 C.2       1 UNL1        0.0000
     13 C           2.3433  -73.5284    6.1929 C.3       1 UNL1        0.0000
     14 C           0.9707  -73.2443    6.6954 C.ar      1 UNL1        0.0000
     15 C           0.5696  -71.8978    6.6333 C.ar      1 UNL1        0.0000
     16 C          -0.6770  -71.5346    7.0835 C.ar      1 UNL1        0.0000
     17 C          -1.1269  -70.1251    7.0346 C.2       1 UNL1        0.0000
     18 C          -1.7370  -68.1641    5.6745 C.3       1 UNL1        0.0000
     19 C          -1.2814  -67.4850    4.4008 C.3       1 UNL1        0.0000
     20 C          -0.2090  -69.5509    3.5508 C.3       1 UNL1        0.0000
     21 C          -1.0258  -70.3017    4.5707 C.3       1 UNL1        0.0000
     22 C           1.1376  -67.4760    3.8195 C.2       1 UNL1        0.0000
     23 C           1.4188  -66.0802    4.1658 C.3       1 UNL1        0.0000
     24 C           1.0260  -65.0454    3.1358 C.3       1 UNL1        0.0000
     25 C           2.4401  -65.2971    3.4220 C.3       1 UNL1        0.0000
     26 C          -1.5812  -72.4296    7.6043 C.ar      1 UNL1        0.0000
     27 C          -1.1876  -73.7473    7.6647 C.ar      1 UNL1        0.0000
     28 C           0.0841  -74.1213    7.2071 C.ar      1 UNL1        0.0000
     29 O           1.7539  -76.4697    1.6199 O.2       1 UNL1        0.0000
     30 O           2.1372  -68.1448    3.3739 O.2       1 UNL1        0.0000
     31 O          -1.3564  -69.4607    8.0713 O.2       1 UNL1        0.0000
     32 F          -2.8079  -72.0188    8.0393 F         1 UNL1        0.0000
     33 H           3.1632  -78.1103    2.6220 H         1 UNL1        0.0000
     34 H           4.5719  -79.0070    4.3903 H         1 UNL1        0.0000
     35 H           4.8550  -77.6938    6.3862 H         1 UNL1        0.0000
     36 H           3.8022  -75.5599    6.6785 H         1 UNL1        0.0000
     37 H           2.8287  -72.6053    5.9534 H         1 UNL1        0.0000
     38 H           2.8878  -74.0465    6.9548 H         1 UNL1        0.0000
     39 H           1.2096  -71.1846    6.2510 H         1 UNL1        0.0000
     40 H          -1.3450  -67.6231    6.5106 H         1 UNL1        0.0000
     41 H          -2.8075  -68.1692    5.6733 H         1 UNL1        0.0000
     42 H          -1.0732  -66.4544    4.5978 H         1 UNL1        0.0000
     43 H          -2.0509  -67.5503    3.6599 H         1 UNL1        0.0000
     44 H           0.7673  -69.9848    3.4942 H         1 UNL1        0.0000
     45 H          -0.6980  -69.6171    2.6013 H         1 UNL1        0.0000
     46 H          -0.4892  -71.1820    4.8574 H         1 UNL1        0.0000
     47 H          -1.9658  -70.5370    4.1188 H         1 UNL1        0.0000
     48 H           1.2465  -66.2685    5.2047 H         1 UNL1        0.0000
     49 H           0.5722  -64.1271    3.4458 H         1 UNL1        0.0000
     50 H           0.4190  -65.0468    2.2546 H         1 UNL1        0.0000
     51 H           3.0178  -64.5560    3.9339 H         1 UNL1        0.0000
     52 H           3.2884  -65.5537    2.8237 H         1 UNL1        0.0000
     53 H          -1.8293  -74.4602    8.0470 H         1 UNL1        0.0000
     54 H           0.3544  -75.1159    7.2641 H         1 UNL1        0.0000
     55 H           0.7929  -74.2016    2.1577 H         1 UNL1        0.0000
@<TRIPOS>BOND
     1    1   18 1
     2    1   21 1
     3    1   17 am
     4    2   19 1
     5    2   20 1
     6    2   22 am
     7    3    4 1
     8    3   12 2
     9    4    5 am
    10    4   55 1
    11    5   29 2
    12    5    6 1
    13    6    7 ar
    14    6   11 ar
    15    7    8 ar
    16    7   33 1
    17    8   34 1
    18    8    9 ar
    19    9   10 ar
    20    9   35 1
    21   10   11 ar
    22   10   36 1
    23   11   12 1
    24   12   13 1
    25   13   37 1
    26   13   38 1
    27   13   14 1
    28   14   15 ar
    29   14   28 ar
    30   15   39 1
    31   15   16 ar
    32   16   26 ar
    33   16   17 1
    34   17   31 2
    35   18   19 1
    36   18   40 1
    37   18   41 1
    38   19   42 1
    39   19   43 1
    40   20   21 1
    41   20   45 1
    42   20   44 1
    43   21   46 1
    44   21   47 1
    45   22   30 2
    46   22   23 1
    47   23   25 1
    48   23   24 1
    49   23   48 1
    50   24   25 1
    51   24   49 1
    52   24   50 1
    53   25   51 1
    54   25   52 1
    55   26   27 ar
    56   26   32 1
    57   27   28 ar
    58   27   53 1
    59   28   54 1
@<TRIPOS>SUBSTRUCTURE
1 UNL1 1
@<TRIPOS>COMMENT
olaparib
PLANTSproteinTorsions
102
4661 131.0388
5386 68.9849
6210 3.1581
5890 3.9444
4461 355.6783
1390 295.9396
2824 109.3098
4339 172.8698
2732 12.3497
4792 345.9207
3407 357.6516
5134 12.3798
6916 106.3196
7370 351.5712
6038 142.2527
7225 95.0619
3592 324.4453
2064 211.3066
2488 241.1435
1253 49.7439
2069 331.7275
2569 354.5912
3058 243.6644
1748 156.8574
1162 46.2284
1509 114.6785
560 179.8952
1627 151.2247
1941 55.1789
3631 154.5980
2381 254.2114
4221 356.4232
4687 255.2040
6983 286.5851
6668 58.0125
7305 233.4948
8693 178.0522
8404 23.8479
9055 265.5716
7052 107.9275
4708 73.0425
2652 204.4503
4332 46.8517
3011 166.6877
2257 248.6175
2778 324.6665
2057 212.6483
192 253.6543
315 226.2800
1085 321.1981
1007 41.2858
1407 119.2172
4816 343.2958
3131 253.9932
4654 117.3746
5144 243.2903
117 295.4353
6 48.9327
259 266.4520
1979 166.2864
2609 257.3151
2623 165.5500
5910 186.0873
5937 298.4674
2062 285.7882
890 21.8974
5008 154.0685
8602 76.4628
8478 90.7060
8300 220.5495
7721 206.2953
8466 314.4665
7852 230.6295
5849 233.1136
6302 194.6508
7439 301.0159
6284 273.7769
6003 184.6684
7165 161.3112
7623 111.9915
8158 164.5738
8667 138.0988
9078 53.0499
8684 211.2699
7666 111.0533
4231 268.3894
1659 218.3933
489 109.8556
238 283.8224
46 7.8623
83 343.8419
254 155.0069
1066 225.7412
2112 77.3886
4047 242.8143
5402 243.7870
2544 130.1579
4670 186.2050
4426 268.4211
5656 229.0489
7040 199.8521
6282 138.2723
PLANTSmolcadARTstart hb
PLANTSmolcadARTstart HB
LINES
PLANTSmolcadARTstart HBCH
LINES
PLANTSmolcadARTstart HB-CHO
LINES
PLANTSmolcadARTend
PLANTSmolcadARTstart HB_WATER
LINES
PLANTSmolcadARTend

PLANTSmolcadARTend

