@<TRIPOS>MOLECULE
olaparib_entry_00001_conf_39
55 59 1
SMALL
NO_CHARGES


@<TRIPOS>ATOM
      1 N         -24.1227  -37.4651    2.2519 N.am      1 UNL1        0.0000
      2 N         -23.0777  -39.2089    3.8691 N.am      1 UNL1        0.0000
      3 N         -21.0937  -32.9911    3.3424 N.2       1 UNL1        0.0000
      4 N         -19.9008  -32.7336    2.8634 N.am      1 UNL1        0.0000
      5 C         -18.9694  -32.0471    3.5402 C.2       1 UNL1        0.0000
      6 C         -19.2735  -31.5847    4.8041 C.ar      1 UNL1        0.0000
      7 C         -18.3479  -30.8478    5.5439 C.ar      1 UNL1        0.0000
      8 C         -18.6812  -30.3777    6.7959 C.ar      1 UNL1        0.0000
      9 C         -19.9472  -30.6703    7.2570 C.ar      1 UNL1        0.0000
     10 C         -20.8758  -31.4001    6.5337 C.ar      1 UNL1        0.0000
     11 C         -20.5350  -31.8628    5.2970 C.ar      1 UNL1        0.0000
     12 C         -21.4707  -32.5675    4.5880 C.2       1 UNL1        0.0000
     13 C         -22.7986  -32.9763    5.0269 C.3       1 UNL1        0.0000
     14 C         -23.6519  -33.3260    3.8577 C.ar      1 UNL1        0.0000
     15 C         -23.3822  -34.5709    3.2619 C.ar      1 UNL1        0.0000
     16 C         -24.1104  -34.9780    2.1698 C.ar      1 UNL1        0.0000
     17 C         -23.8480  -36.2812    1.5185 C.2       1 UNL1        0.0000
     18 C         -23.8871  -38.7403    1.6558 C.3       1 UNL1        0.0000
     19 C         -23.6086  -39.8206    2.6787 C.3       1 UNL1        0.0000
     20 C         -23.9495  -38.2658    4.5779 C.3       1 UNL1        0.0000
     21 C         -24.6415  -37.3491    3.6022 C.3       1 UNL1        0.0000
     22 C         -21.7930  -39.4849    4.3461 C.2       1 UNL1        0.0000
     23 C         -20.8050  -40.3858    3.7464 C.3       1 UNL1        0.0000
     24 C         -21.3314  -41.7082    3.2363 C.3       1 UNL1        0.0000
     25 C         -20.4435  -41.6708    4.4004 C.3       1 UNL1        0.0000
     26 C         -25.1138  -34.2241    1.6087 C.ar      1 UNL1        0.0000
     27 C         -25.3769  -33.0057    2.1927 C.ar      1 UNL1        0.0000
     28 C         -24.6351  -32.5868    3.3065 C.ar      1 UNL1        0.0000
     29 O         -17.8199  -31.7914    3.0983 O.2       1 UNL1        0.0000
     30 O         -21.4192  -38.8959    5.4224 O.2       1 UNL1        0.0000
     31 O         -23.3966  -36.3668    0.3533 O.2       1 UNL1        0.0000
     32 F         -25.8083  -34.6726    0.5228 F         1 UNL1        0.0000
     33 H         -17.4123  -30.6549    5.1536 H         1 UNL1        0.0000
     34 H         -18.0142  -29.8314    7.3615 H         1 UNL1        0.0000
     35 H         -20.2174  -30.3267    8.1914 H         1 UNL1        0.0000
     36 H         -21.8118  -31.5916    6.9243 H         1 UNL1        0.0000
     37 H         -23.2539  -32.1728    5.5673 H         1 UNL1        0.0000
     38 H         -22.7049  -33.8383    5.6541 H         1 UNL1        0.0000
     39 H         -22.6394  -35.1769    3.6434 H         1 UNL1        0.0000
     40 H         -23.0436  -38.6619    1.0016 H         1 UNL1        0.0000
     41 H         -24.7746  -39.0180    1.1254 H         1 UNL1        0.0000
     42 H         -22.8977  -40.5151    2.2833 H         1 UNL1        0.0000
     43 H         -24.5140  -40.3419    2.9111 H         1 UNL1        0.0000
     44 H         -23.3610  -37.6805    5.2530 H         1 UNL1        0.0000
     45 H         -24.6908  -38.8176    5.1174 H         1 UNL1        0.0000
     46 H         -24.5115  -36.3391    3.9310 H         1 UNL1        0.0000
     47 H         -25.6729  -37.6298    3.5743 H         1 UNL1        0.0000
     48 H         -20.2336  -39.5631    3.3709 H         1 UNL1        0.0000
     49 H         -20.9782  -42.1019    2.3059 H         1 UNL1        0.0000
     50 H         -22.3028  -42.1101    3.0365 H         1 UNL1        0.0000
     51 H         -19.4448  -42.0461    4.3181 H         1 UNL1        0.0000
     52 H         -20.5078  -42.0441    5.4003 H         1 UNL1        0.0000
     53 H         -26.1210  -32.4005    1.8103 H         1 UNL1        0.0000
     54 H         -24.8525  -31.6685    3.7251 H         1 UNL1        0.0000
     55 H         -19.6780  -33.0614    1.9619 H         1 UNL1        0.0000
@<TRIPOS>BOND
     1    1   18 1
     2    1   21 1
     3    1   17 am
     4    2   19 1
     5    2   20 1
     6    2   22 am
     7    3    4 1
     8    3   12 2
     9    4    5 am
    10    4   55 1
    11    5   29 2
    12    5    6 1
    13    6    7 ar
    14    6   11 ar
    15    7    8 ar
    16    7   33 1
    17    8   34 1
    18    8    9 ar
    19    9   10 ar
    20    9   35 1
    21   10   11 ar
    22   10   36 1
    23   11   12 1
    24   12   13 1
    25   13   37 1
    26   13   38 1
    27   13   14 1
    28   14   15 ar
    29   14   28 ar
    30   15   39 1
    31   15   16 ar
    32   16   26 ar
    33   16   17 1
    34   17   31 2
    35   18   19 1
    36   18   40 1
    37   18   41 1
    38   19   42 1
    39   19   43 1
    40   20   21 1
    41   20   45 1
    42   20   44 1
    43   21   46 1
    44   21   47 1
    45   22   30 2
    46   22   23 1
    47   23   25 1
    48   23   24 1
    49   23   48 1
    50   24   25 1
    51   24   49 1
    52   24   50 1
    53   25   51 1
    54   25   52 1
    55   26   27 ar
    56   26   32 1
    57   27   28 ar
    58   27   53 1
    59   28   54 1
@<TRIPOS>SUBSTRUCTURE
1 UNL1 1
@<TRIPOS>COMMENT
olaparib
PLANTSproteinTorsions
102
4661 122.0443
5386 142.6146
6210 132.3715
5890 54.5747
4461 61.5146
1390 79.8613
2824 63.6537
4339 135.6657
2732 9.0280
4792 76.7428
3407 115.8750
5134 0.8197
6916 61.0013
7370 106.7064
6038 36.2793
7225 357.1087
3592 173.2070
2064 308.6128
2488 145.4966
1253 282.6486
2069 137.5942
2569 287.1112
3058 215.5390
1748 172.7143
1162 225.9201
1509 225.2718
560 204.4764
1627 231.9922
1941 159.0424
3631 96.3076
2381 202.1697
4221 343.8968
4687 240.1281
6983 90.6335
6668 110.3740
7305 303.3684
8693 48.8296
8404 250.8752
9055 227.9702
7052 210.2743
4708 92.6665
2652 173.9938
4332 186.5269
3011 38.7961
2257 157.3619
2778 207.0804
2057 50.9533
192 80.7736
315 119.1807
1085 0.5277
1007 265.6005
1407 103.3681
4816 81.7755
3131 156.1256
4654 38.5739
5144 102.9502
117 140.1403
6 142.0053
259 87.7462
1979 311.9131
2609 238.8149
2623 256.1677
5910 265.3333
5937 28.4759
2062 127.4129
890 199.9968
5008 144.4549
8602 135.5340
8478 156.4368
8300 119.1828
7721 160.8346
8466 94.9497
7852 252.1071
5849 263.6934
6302 32.2898
7439 324.5578
6284 258.4040
6003 272.9819
7165 261.7501
7623 242.0716
8158 319.1668
8667 79.4047
9078 313.0919
8684 193.6628
7666 97.1167
4231 207.2209
1659 270.3764
489 5.1981
238 94.9672
46 205.6677
83 73.6040
254 214.7404
1066 118.9945
2112 152.8057
4047 173.0822
5402 215.7526
2544 219.1095
4670 234.7367
4426 248.6585
5656 236.7007
7040 223.9149
6282 270.0453
PLANTSmolcadARTstart hb
PLANTSmolcadARTstart HB
LINES
PLANTSmolcadARTstart HBCH
LINES
PLANTSmolcadARTstart HB-CHO
LINES
PLANTSmolcadARTend
PLANTSmolcadARTstart HB_WATER
LINES
PLANTSmolcadARTend

PLANTSmolcadARTend

