@<TRIPOS>MOLECULE
olaparib_entry_00001_conf_64
55 59 1
SMALL
NO_CHARGES


@<TRIPOS>ATOM
      1 N         -44.2086  -63.7371  -18.2592 N.am      1 UNL1        0.0000
      2 N         -45.6708  -65.7813  -17.6022 N.am      1 UNL1        0.0000
      3 N         -47.1666  -58.4787  -22.3667 N.2       1 UNL1        0.0000
      4 N         -48.3722  -58.3047  -22.8513 N.am      1 UNL1        0.0000
      5 C         -49.0559  -59.2680  -23.4850 C.2       1 UNL1        0.0000
      6 C         -48.4683  -60.5068  -23.6394 C.ar      1 UNL1        0.0000
      7 C         -49.1275  -61.5387  -24.3084 C.ar      1 UNL1        0.0000
      8 C         -48.5125  -62.7616  -24.4695 C.ar      1 UNL1        0.0000
      9 C         -47.2441  -62.8973  -23.9461 C.ar      1 UNL1        0.0000
     10 C         -46.5780  -61.8819  -23.2803 C.ar      1 UNL1        0.0000
     11 C         -47.1965  -60.6766  -23.1241 C.ar      1 UNL1        0.0000
     12 C         -46.5171  -59.6782  -22.4789 C.2       1 UNL1        0.0000
     13 C         -45.2100  -59.7589  -21.8403 C.3       1 UNL1        0.0000
     14 C         -45.3559  -59.9709  -20.3736 C.ar      1 UNL1        0.0000
     15 C         -44.5932  -61.0223  -19.8348 C.ar      1 UNL1        0.0000
     16 C         -44.6684  -61.3026  -18.4914 C.ar      1 UNL1        0.0000
     17 C         -43.8807  -62.4049  -17.8951 C.2       1 UNL1        0.0000
     18 C         -43.4685  -64.8262  -17.7088 C.3       1 UNL1        0.0000
     19 C         -44.2698  -66.1092  -17.6558 C.3       1 UNL1        0.0000
     20 C         -46.2299  -65.0613  -18.7516 C.3       1 UNL1        0.0000
     21 C         -45.2981  -63.9614  -19.1912 C.3       1 UNL1        0.0000
     22 C         -46.4806  -66.1221  -16.5149 C.2       1 UNL1        0.0000
     23 C         -46.0697  -66.8233  -15.2957 C.3       1 UNL1        0.0000
     24 C         -45.7948  -68.3033  -15.4380 C.3       1 UNL1        0.0000
     25 C         -46.9493  -67.8416  -14.6641 C.3       1 UNL1        0.0000
     26 C         -45.4637  -60.5997  -17.6177 C.ar      1 UNL1        0.0000
     27 C         -46.2099  -59.5707  -18.1463 C.ar      1 UNL1        0.0000
     28 C         -46.1364  -59.2827  -19.5166 C.ar      1 UNL1        0.0000
     29 O         -50.2130  -59.1207  -23.9552 O.2       1 UNL1        0.0000
     30 O         -47.7194  -65.7940  -16.5704 O.2       1 UNL1        0.0000
     31 O         -42.9449  -62.1971  -17.0889 O.2       1 UNL1        0.0000
     32 F         -45.5043  -60.9175  -16.2910 F         1 UNL1        0.0000
     33 H         -50.0771  -61.3866  -24.6827 H         1 UNL1        0.0000
     34 H         -48.9796  -63.5393  -24.9597 H         1 UNL1        0.0000
     35 H         -46.7653  -63.8043  -24.0569 H         1 UNL1        0.0000
     36 H         -45.6278  -62.0345  -22.9073 H         1 UNL1        0.0000
     37 H         -44.6766  -58.8475  -22.0130 H         1 UNL1        0.0000
     38 H         -44.6733  -60.5866  -22.2554 H         1 UNL1        0.0000
     39 H         -43.9790  -61.5821  -20.4463 H         1 UNL1        0.0000
     40 H         -43.1681  -64.5683  -16.7144 H         1 UNL1        0.0000
     41 H         -42.6247  -64.9979  -18.3449 H         1 UNL1        0.0000
     42 H         -43.9973  -66.6673  -16.7849 H         1 UNL1        0.0000
     43 H         -44.0679  -66.6990  -18.5258 H         1 UNL1        0.0000
     44 H         -47.1717  -64.6349  -18.4765 H         1 UNL1        0.0000
     45 H         -46.3582  -65.7485  -19.5617 H         1 UNL1        0.0000
     46 H         -45.8591  -63.0548  -19.2833 H         1 UNL1        0.0000
     47 H         -44.8665  -64.2597  -20.1228 H         1 UNL1        0.0000
     48 H         -45.5635  -65.9558  -14.9275 H         1 UNL1        0.0000
     49 H         -44.9563  -68.7424  -14.9385 H         1 UNL1        0.0000
     50 H         -45.6525  -68.9711  -16.2619 H         1 UNL1        0.0000
     51 H         -46.9535  -67.9533  -13.5998 H         1 UNL1        0.0000
     52 H         -47.9985  -68.0453  -14.6956 H         1 UNL1        0.0000
     53 H         -46.8237  -59.0109  -17.5330 H         1 UNL1        0.0000
     54 H         -46.7065  -58.5062  -19.8873 H         1 UNL1        0.0000
     55 H         -48.7968  -57.4227  -22.7437 H         1 UNL1        0.0000
@<TRIPOS>BOND
     1    1   18 1
     2    1   21 1
     3    1   17 am
     4    2   19 1
     5    2   20 1
     6    2   22 am
     7    3    4 1
     8    3   12 2
     9    4    5 am
    10    4   55 1
    11    5   29 2
    12    5    6 1
    13    6    7 ar
    14    6   11 ar
    15    7    8 ar
    16    7   33 1
    17    8   34 1
    18    8    9 ar
    19    9   10 ar
    20    9   35 1
    21   10   11 ar
    22   10   36 1
    23   11   12 1
    24   12   13 1
    25   13   37 1
    26   13   38 1
    27   13   14 1
    28   14   15 ar
    29   14   28 ar
    30   15   39 1
    31   15   16 ar
    32   16   26 ar
    33   16   17 1
    34   17   31 2
    35   18   19 1
    36   18   40 1
    37   18   41 1
    38   19   42 1
    39   19   43 1
    40   20   21 1
    41   20   45 1
    42   20   44 1
    43   21   46 1
    44   21   47 1
    45   22   30 2
    46   22   23 1
    47   23   25 1
    48   23   24 1
    49   23   48 1
    50   24   25 1
    51   24   49 1
    52   24   50 1
    53   25   51 1
    54   25   52 1
    55   26   27 ar
    56   26   32 1
    57   27   28 ar
    58   27   53 1
    59   28   54 1
@<TRIPOS>SUBSTRUCTURE
1 UNL1 1
@<TRIPOS>COMMENT
olaparib
PLANTSproteinTorsions
102
4661 31.9133
5386 48.2987
6210 25.1355
5890 231.8509
4461 172.8200
1390 54.9822
2824 354.8301
4339 197.5907
2732 98.8920
4792 6.6023
3407 14.1731
5134 355.3636
6916 151.6394
7370 22.4843
6038 196.7388
7225 173.7760
3592 337.2892
2064 157.1444
2488 222.4061
1253 181.1073
2069 105.2055
2569 304.1245
3058 238.6529
1748 88.4351
1162 149.6006
1509 7.9010
560 236.2238
1627 252.8955
1941 133.5273
3631 160.3662
2381 83.6940
4221 89.5643
4687 11.0800
6983 126.9320
6668 19.9831
7305 3.4343
8693 56.1400
8404 67.1539
9055 89.8737
7052 349.9130
4708 326.8824
2652 245.7434
4332 261.9662
3011 187.6384
2257 326.2070
2778 313.1563
2057 66.9932
192 325.0995
315 215.5775
1085 69.9308
1007 37.8047
1407 130.9517
4816 51.3743
3131 36.5682
4654 179.9602
5144 238.3114
117 27.5206
6 215.9317
259 331.6323
1979 273.1401
2609 142.0000
2623 89.1088
5910 77.1164
5937 14.3072
2062 263.9344
890 258.0488
5008 172.2537
8602 265.5872
8478 266.1445
8300 51.2220
7721 203.0908
8466 75.5851
7852 169.3799
5849 120.4785
6302 250.0531
7439 127.9490
6284 66.3324
6003 220.2962
7165 237.6994
7623 218.0548
8158 235.7920
8667 137.4661
9078 61.5901
8684 176.2522
7666 145.0836
4231 261.0052
1659 218.2237
489 240.3238
238 247.8929
46 51.2897
83 196.1683
254 134.5337
1066 274.1769
2112 139.2028
4047 28.5323
5402 220.4789
2544 165.5336
4670 105.2567
4426 255.7797
5656 238.7231
7040 59.6075
6282 112.8997
PLANTSmolcadARTstart hb
PLANTSmolcadARTstart HB
LINES
-47.7194 -65.794 -16.5704 -47.292 -63.904 -15.412 0 255 0 5
-47.7194 -65.794 -16.5704 -49.314 -65.007 -15.825 0 255 0 5
PLANTSmolcadARTstart HBCH
LINES
PLANTSmolcadARTstart HB-CHO
LINES
PLANTSmolcadARTend
PLANTSmolcadARTstart HB_WATER
LINES
PLANTSmolcadARTend

PLANTSmolcadARTend

