@<TRIPOS>MOLECULE
olaparib_entry_00001_conf_29
55 59 1
SMALL
NO_CHARGES


@<TRIPOS>ATOM
      1 N           1.7723  -74.7552    1.1612 N.am      1 UNL1        0.0000
      2 N           1.8857  -74.3952    3.7313 N.am      1 UNL1        0.0000
      3 N          -3.8518  -78.5419   -2.1075 N.2       1 UNL1        0.0000
      4 N          -4.3487  -79.0325   -3.2170 N.am      1 UNL1        0.0000
      5 C          -5.1714  -78.3447   -4.0213 C.2       1 UNL1        0.0000
      6 C          -5.5175  -77.0558   -3.6709 C.ar      1 UNL1        0.0000
      7 C          -6.3861  -76.3026   -4.4616 C.ar      1 UNL1        0.0000
      8 C          -6.7348  -75.0247   -4.0808 C.ar      1 UNL1        0.0000
      9 C          -6.1902  -74.5520   -2.9055 C.ar      1 UNL1        0.0000
     10 C          -5.3275  -75.2884   -2.1109 C.ar      1 UNL1        0.0000
     11 C          -4.9868  -76.5509   -2.4981 C.ar      1 UNL1        0.0000
     12 C          -4.1468  -77.2716   -1.6923 C.2       1 UNL1        0.0000
     13 C          -3.4775  -76.8252   -0.4775 C.3       1 UNL1        0.0000
     14 C          -2.0003  -76.9502   -0.6173 C.ar      1 UNL1        0.0000
     15 C          -1.2585  -75.8148   -0.2457 C.ar      1 UNL1        0.0000
     16 C           0.1118  -75.8296   -0.3491 C.ar      1 UNL1        0.0000
     17 C           0.9201  -74.6491    0.0308 C.2       1 UNL1        0.0000
     18 C           2.5706  -73.6398    1.5555 C.3       1 UNL1        0.0000
     19 C           2.9017  -73.6518    3.0324 C.3       1 UNL1        0.0000
     20 C           1.7452  -75.8144    3.3880 C.3       1 UNL1        0.0000
     21 C           1.8117  -76.0067    1.8947 C.3       1 UNL1        0.0000
     22 C           1.0587  -73.8122    4.6959 C.2       1 UNL1        0.0000
     23 C           1.0669  -72.4144    5.1353 C.3       1 UNL1        0.0000
     24 C          -0.0497  -72.0018    6.0674 C.3       1 UNL1        0.0000
     25 C           0.0036  -71.4694    4.7040 C.3       1 UNL1        0.0000
     26 C           0.8220  -76.9149   -0.8049 C.ar      1 UNL1        0.0000
     27 C           0.0949  -78.0258   -1.1685 C.ar      1 UNL1        0.0000
     28 C          -1.3035  -78.0137   -1.0651 C.ar      1 UNL1        0.0000
     29 O          -5.6569  -78.7973   -5.0895 O.2       1 UNL1        0.0000
     30 O           0.1922  -74.5644    5.2691 O.2       1 UNL1        0.0000
     31 O           0.8737  -73.5736   -0.6093 O.2       1 UNL1        0.0000
     32 F           2.1837  -76.8801   -0.8900 F         1 UNL1        0.0000
     33 H          -6.7676  -76.7024   -5.3332 H         1 UNL1        0.0000
     34 H          -7.3743  -74.4488   -4.6487 H         1 UNL1        0.0000
     35 H          -6.4394  -73.5983   -2.6015 H         1 UNL1        0.0000
     36 H          -4.9473  -74.8883   -1.2388 H         1 UNL1        0.0000
     37 H          -3.8053  -77.4247    0.3460 H         1 UNL1        0.0000
     38 H          -3.7208  -75.7970   -0.3071 H         1 UNL1        0.0000
     39 H          -1.7418  -74.9726    0.1034 H         1 UNL1        0.0000
     40 H           2.0364  -72.7400    1.3312 H         1 UNL1        0.0000
     41 H           3.4939  -73.6966    1.0166 H         1 UNL1        0.0000
     42 H           2.9318  -72.6485    3.4020 H         1 UNL1        0.0000
     43 H           3.8569  -74.1094    3.1861 H         1 UNL1        0.0000
     44 H           0.8030  -76.1725    3.7466 H         1 UNL1        0.0000
     45 H           2.5451  -76.3615    3.8417 H         1 UNL1        0.0000
     46 H           0.9792  -76.6060    1.5899 H         1 UNL1        0.0000
     47 H           2.7452  -76.4786    1.6732 H         1 UNL1        0.0000
     48 H           2.1360  -72.3800    5.1164 H         1 UNL1        0.0000
     49 H           0.1571  -71.3623    6.9003 H         1 UNL1        0.0000
     50 H          -0.7811  -72.5223    6.6498 H         1 UNL1        0.0000
     51 H           0.2415  -70.4382    4.5461 H         1 UNL1        0.0000
     52 H          -0.6846  -71.4421    3.8862 H         1 UNL1        0.0000
     53 H           0.5798  -78.8681   -1.5171 H         1 UNL1        0.0000
     54 H          -1.8247  -78.8597   -1.3446 H         1 UNL1        0.0000
     55 H          -4.1049  -79.9519   -3.4724 H         1 UNL1        0.0000
@<TRIPOS>BOND
     1    1   18 1
     2    1   21 1
     3    1   17 am
     4    2   19 1
     5    2   20 1
     6    2   22 am
     7    3    4 1
     8    3   12 2
     9    4    5 am
    10    4   55 1
    11    5   29 2
    12    5    6 1
    13    6    7 ar
    14    6   11 ar
    15    7    8 ar
    16    7   33 1
    17    8   34 1
    18    8    9 ar
    19    9   10 ar
    20    9   35 1
    21   10   11 ar
    22   10   36 1
    23   11   12 1
    24   12   13 1
    25   13   37 1
    26   13   38 1
    27   13   14 1
    28   14   15 ar
    29   14   28 ar
    30   15   39 1
    31   15   16 ar
    32   16   26 ar
    33   16   17 1
    34   17   31 2
    35   18   19 1
    36   18   40 1
    37   18   41 1
    38   19   42 1
    39   19   43 1
    40   20   21 1
    41   20   45 1
    42   20   44 1
    43   21   46 1
    44   21   47 1
    45   22   30 2
    46   22   23 1
    47   23   25 1
    48   23   24 1
    49   23   48 1
    50   24   25 1
    51   24   49 1
    52   24   50 1
    53   25   51 1
    54   25   52 1
    55   26   27 ar
    56   26   32 1
    57   27   28 ar
    58   27   53 1
    59   28   54 1
@<TRIPOS>SUBSTRUCTURE
1 UNL1 1
@<TRIPOS>COMMENT
olaparib
PLANTSproteinTorsions
102
4661 212.6397
5386 136.9119
6210 124.1116
5890 241.4062
4461 42.5085
1390 253.1137
2824 109.9408
4339 112.9586
2732 256.8063
4792 338.2411
3407 29.0187
5134 358.3191
6916 118.4537
7370 230.7950
6038 164.5170
7225 107.1354
3592 277.4215
2064 239.5307
2488 250.6488
1253 74.7321
2069 337.6657
2569 251.9831
3058 50.6421
1748 144.4899
1162 35.4113
1509 113.6815
560 183.9073
1627 135.2917
1941 44.3932
3631 172.4641
2381 240.4477
4221 296.8040
4687 228.4913
6983 99.8198
6668 117.5244
7305 228.9760
8693 168.5895
8404 35.7450
9055 255.1200
7052 207.5258
4708 51.2690
2652 216.7437
4332 51.9417
3011 190.5783
2257 259.5424
2778 35.6341
2057 250.0370
192 254.6475
315 169.2837
1085 55.3364
1007 304.3659
1407 266.1560
4816 44.9081
3131 279.6034
4654 120.5764
5144 90.8644
117 238.5239
6 74.1527
259 93.0234
1979 176.2538
2609 97.6740
2623 246.3703
5910 79.6530
5937 286.7253
2062 276.5855
890 9.5250
5008 183.5820
8602 118.5843
8478 101.9670
8300 195.2820
7721 135.5580
8466 149.5502
7852 225.1403
5849 81.6830
6302 181.4942
7439 258.0128
6284 88.1677
6003 175.2530
7165 154.3539
7623 182.4765
8158 149.3362
8667 192.8838
9078 182.5352
8684 228.5429
7666 241.1372
4231 62.5338
1659 270.2430
489 110.7446
238 268.7823
46 9.1445
83 107.6290
254 169.7120
1066 256.9535
2112 247.6229
4047 248.2285
5402 207.3828
2544 155.3966
4670 253.3367
4426 256.7986
5656 198.4306
7040 166.3128
6282 105.6051
PLANTSmolcadARTstart hb
PLANTSmolcadARTstart HB
LINES
PLANTSmolcadARTstart HBCH
LINES
PLANTSmolcadARTstart HB-CHO
LINES
PLANTSmolcadARTend
PLANTSmolcadARTstart HB_WATER
LINES
PLANTSmolcadARTend

PLANTSmolcadARTend

