@<TRIPOS>MOLECULE
olaparib_entry_00001_conf_100
55 59 1
SMALL
NO_CHARGES


@<TRIPOS>ATOM
      1 N         -15.5117  -42.2533   -2.6359 N.am      1 UNL1        0.0000
      2 N         -15.8524  -44.7940   -2.2150 N.am      1 UNL1        0.0000
      3 N         -18.2087  -42.3289    2.2042 N.2       1 UNL1        0.0000
      4 N         -19.1213  -43.2699    2.2182 N.am      1 UNL1        0.0000
      5 C         -20.4374  -43.0172    2.2492 C.2       1 UNL1        0.0000
      6 C         -20.8607  -41.7041    2.2680 C.ar      1 UNL1        0.0000
      7 C         -22.2181  -41.3853    2.3206 C.ar      1 UNL1        0.0000
      8 C         -22.6172  -40.0666    2.3601 C.ar      1 UNL1        0.0000
      9 C         -21.6226  -39.1117    2.3465 C.ar      1 UNL1        0.0000
     10 C         -20.2720  -39.4137    2.2948 C.ar      1 UNL1        0.0000
     11 C         -19.8879  -40.7216    2.2534 C.ar      1 UNL1        0.0000
     12 C         -18.5485  -41.0031    2.2203 C.2       1 UNL1        0.0000
     13 C         -17.4418  -40.0592    2.1349 C.3       1 UNL1        0.0000
     14 C         -17.1895  -39.6746    0.7187 C.ar      1 UNL1        0.0000
     15 C         -16.2842  -40.4938    0.0208 C.ar      1 UNL1        0.0000
     16 C         -15.9788  -40.2133   -1.2895 C.ar      1 UNL1        0.0000
     17 C         -15.0272  -41.0547   -2.0497 C.2       1 UNL1        0.0000
     18 C         -14.6253  -43.0882   -3.3805 C.3       1 UNL1        0.0000
     19 C         -15.0580  -44.5386   -3.3884 C.3       1 UNL1        0.0000
     20 C         -17.1100  -44.0496   -2.0881 C.3       1 UNL1        0.0000
     21 C         -16.9092  -42.6037   -2.4627 C.3       1 UNL1        0.0000
     22 C         -15.4627  -45.7041   -1.2280 C.2       1 UNL1        0.0000
     23 C         -14.2375  -46.5075   -1.2043 C.3       1 UNL1        0.0000
     24 C         -13.6692  -46.8167    0.1622 C.3       1 UNL1        0.0000
     25 C         -12.9481  -45.9249   -0.7487 C.3       1 UNL1        0.0000
     26 C         -16.5181  -39.1536   -1.9794 C.ar      1 UNL1        0.0000
     27 C         -17.4041  -38.3524   -1.2953 C.ar      1 UNL1        0.0000
     28 C         -17.7172  -38.6351    0.0420 C.ar      1 UNL1        0.0000
     29 O         -21.3274  -43.9058    2.2618 O.2       1 UNL1        0.0000
     30 O         -16.2477  -45.8676   -0.2269 O.2       1 UNL1        0.0000
     31 O         -13.8223  -40.7419   -2.1884 O.2       1 UNL1        0.0000
     32 F         -16.1821  -38.9164   -3.2808 F         1 UNL1        0.0000
     33 H         -22.9245  -42.1376    2.3293 H         1 UNL1        0.0000
     34 H         -23.6141  -39.8062    2.3988 H         1 UNL1        0.0000
     35 H         -21.8997  -38.1185    2.3768 H         1 UNL1        0.0000
     36 H         -19.5661  -38.6608    2.2873 H         1 UNL1        0.0000
     37 H         -16.5606  -40.5120    2.5392 H         1 UNL1        0.0000
     38 H         -17.6944  -39.1798    2.6901 H         1 UNL1        0.0000
     39 H         -15.8502  -41.3031    0.4913 H         1 UNL1        0.0000
     40 H         -13.6490  -43.0239   -2.9467 H         1 UNL1        0.0000
     41 H         -14.6314  -42.7432   -4.3939 H         1 UNL1        0.0000
     42 H         -14.1952  -45.1709   -3.3834 H         1 UNL1        0.0000
     43 H         -15.6337  -44.7404   -4.2677 H         1 UNL1        0.0000
     44 H         -17.4528  -44.1060   -1.0762 H         1 UNL1        0.0000
     45 H         -17.8348  -44.4789   -2.7479 H         1 UNL1        0.0000
     46 H         -17.3203  -41.9898   -1.6885 H         1 UNL1        0.0000
     47 H         -17.3980  -42.4441   -3.4001 H         1 UNL1        0.0000
     48 H         -14.5348  -47.0471   -2.0788 H         1 UNL1        0.0000
     49 H         -13.2834  -47.7924    0.3732 H         1 UNL1        0.0000
     50 H         -14.0305  -46.7433    1.1667 H         1 UNL1        0.0000
     51 H         -12.0313  -46.2502   -1.1944 H         1 UNL1        0.0000
     52 H         -12.5641  -44.9300   -0.6705 H         1 UNL1        0.0000
     53 H         -17.8381  -37.5432   -1.7675 H         1 UNL1        0.0000
     54 H         -18.3842  -38.0182    0.5320 H         1 UNL1        0.0000
     55 H         -18.8251  -44.2090    2.2046 H         1 UNL1        0.0000
@<TRIPOS>BOND
     1    1   18 1
     2    1   21 1
     3    1   17 am
     4    2   19 1
     5    2   20 1
     6    2   22 am
     7    3    4 1
     8    3   12 2
     9    4    5 am
    10    4   55 1
    11    5   29 2
    12    5    6 1
    13    6    7 ar
    14    6   11 ar
    15    7    8 ar
    16    7   33 1
    17    8   34 1
    18    8    9 ar
    19    9   10 ar
    20    9   35 1
    21   10   11 ar
    22   10   36 1
    23   11   12 1
    24   12   13 1
    25   13   37 1
    26   13   38 1
    27   13   14 1
    28   14   15 ar
    29   14   28 ar
    30   15   39 1
    31   15   16 ar
    32   16   26 ar
    33   16   17 1
    34   17   31 2
    35   18   19 1
    36   18   40 1
    37   18   41 1
    38   19   42 1
    39   19   43 1
    40   20   21 1
    41   20   45 1
    42   20   44 1
    43   21   46 1
    44   21   47 1
    45   22   30 2
    46   22   23 1
    47   23   25 1
    48   23   24 1
    49   23   48 1
    50   24   25 1
    51   24   49 1
    52   24   50 1
    53   25   51 1
    54   25   52 1
    55   26   27 ar
    56   26   32 1
    57   27   28 ar
    58   27   53 1
    59   28   54 1
@<TRIPOS>SUBSTRUCTURE
1 UNL1 1
@<TRIPOS>COMMENT
olaparib
PLANTSproteinTorsions
102
4661 160.7188
5386 120.6500
6210 199.0348
5890 294.8022
4461 159.1984
1390 164.7800
2824 166.6419
4339 0.0328
2732 196.2765
4792 3.9386
3407 47.8026
5134 250.5242
6916 357.5199
7370 344.2480
6038 165.0367
7225 116.2557
3592 218.1603
2064 93.5580
2488 169.6495
1253 72.7114
2069 139.9336
2569 343.8975
3058 11.3493
1748 239.5957
1162 209.3458
1509 68.7202
560 93.5406
1627 125.7486
1941 353.4799
3631 80.7623
2381 91.8947
4221 131.2812
4687 175.2044
6983 49.4669
6668 127.3238
7305 263.7813
8693 75.0032
8404 142.6001
9055 165.4964
7052 254.4386
4708 12.0586
2652 86.9822
4332 280.6092
3011 23.4698
2257 193.5006
2778 141.7153
2057 177.4574
192 84.8278
315 173.4460
1085 6.0203
1007 68.2967
1407 123.4510
4816 187.2272
3131 163.1427
4654 48.4807
5144 261.6246
117 47.1673
6 99.6177
259 118.8744
1979 289.6262
2609 50.9075
2623 41.8479
5910 159.6566
5937 110.9581
2062 24.1623
890 258.8011
5008 247.7017
8602 316.6880
8478 96.5512
8300 107.1805
7721 265.4720
8466 15.6757
7852 144.3761
5849 157.6747
6302 290.7559
7439 194.1813
6284 156.4973
6003 262.4948
7165 313.6371
7623 140.7672
8158 201.0334
8667 168.1274
9078 286.2969
8684 197.3587
7666 291.9217
4231 133.0570
1659 261.9616
489 154.7608
238 226.9758
46 108.0125
83 79.1906
254 249.0835
1066 117.5971
2112 233.5663
4047 73.1212
5402 264.1870
2544 39.3489
4670 46.2221
4426 248.2313
5656 75.6636
7040 105.2600
6282 242.8722
PLANTSmolcadARTstart hb
PLANTSmolcadARTstart HB
LINES
-13.8223 -40.7419 -2.18839 -13.084 -39.387 -3.151 0 255 0 5
PLANTSmolcadARTstart HBCH
LINES
PLANTSmolcadARTstart HB-CHO
LINES
PLANTSmolcadARTend
PLANTSmolcadARTstart HB_WATER
LINES
PLANTSmolcadARTend

PLANTSmolcadARTend

