@<TRIPOS>MOLECULE
olaparib_entry_00001_conf_46
55 59 1
SMALL
NO_CHARGES


@<TRIPOS>ATOM
      1 N         -16.6224  -39.9895    0.5392 N.am      1 UNL1        0.0000
      2 N         -17.0950  -37.4506    0.2588 N.am      1 UNL1        0.0000
      3 N         -19.3349  -43.0638    3.4583 N.2       1 UNL1        0.0000
      4 N         -19.3370  -42.2680    4.5000 N.am      1 UNL1        0.0000
      5 C         -20.2479  -41.3022    4.6855 C.2       1 UNL1        0.0000
      6 C         -21.2354  -41.1306    3.7373 C.ar      1 UNL1        0.0000
      7 C         -22.1964  -40.1277    3.8711 C.ar      1 UNL1        0.0000
      8 C         -23.1608  -39.9609    2.9007 C.ar      1 UNL1        0.0000
      9 C         -23.1175  -40.8189    1.8222 C.ar      1 UNL1        0.0000
     10 C         -22.1697  -41.8180    1.6763 C.ar      1 UNL1        0.0000
     11 C         -21.2213  -41.9762    2.6435 C.ar      1 UNL1        0.0000
     12 C         -20.2813  -42.9573    2.4753 C.2       1 UNL1        0.0000
     13 C         -20.2055  -43.9444    1.4062 C.3       1 UNL1        0.0000
     14 C         -19.4683  -43.3932    0.2357 C.ar      1 UNL1        0.0000
     15 C         -18.3475  -42.6018    0.5439 C.ar      1 UNL1        0.0000
     16 C         -17.6082  -42.0399   -0.4692 C.ar      1 UNL1        0.0000
     17 C         -16.4253  -41.1992   -0.1769 C.2       1 UNL1        0.0000
     18 C         -15.5055  -39.1549    0.8441 C.3       1 UNL1        0.0000
     19 C         -15.8910  -37.7004    1.0078 C.3       1 UNL1        0.0000
     20 C         -18.2975  -38.1843    0.6682 C.3       1 UNL1        0.0000
     21 C         -17.9669  -39.6278    0.9482 C.3       1 UNL1        0.0000
     22 C         -17.1398  -36.5553   -0.8139 C.2       1 UNL1        0.0000
     23 C         -16.0283  -35.7640   -1.3483 C.3       1 UNL1        0.0000
     24 C         -15.7170  -34.4753   -0.6213 C.3       1 UNL1        0.0000
     25 C         -16.2648  -34.4390   -1.9792 C.3       1 UNL1        0.0000
     26 C         -17.9034  -42.2084   -1.8012 C.ar      1 UNL1        0.0000
     27 C         -19.0008  -42.9832   -2.1017 C.ar      1 UNL1        0.0000
     28 C         -19.7579  -43.5572   -1.0705 C.ar      1 UNL1        0.0000
     29 O         -20.2671  -40.5302    5.6782 O.2       1 UNL1        0.0000
     30 O         -18.2651  -36.3955   -1.4084 O.2       1 UNL1        0.0000
     31 O         -15.2705  -41.5219   -0.5390 O.2       1 UNL1        0.0000
     32 F         -17.1380  -41.6283   -2.7710 F         1 UNL1        0.0000
     33 H         -22.1856  -39.5103    4.6980 H         1 UNL1        0.0000
     34 H         -23.8814  -39.2274    2.9776 H         1 UNL1        0.0000
     35 H         -23.8296  -40.7103    1.0837 H         1 UNL1        0.0000
     36 H         -22.1804  -42.4343    0.8485 H         1 UNL1        0.0000
     37 H         -21.1962  -44.2129    1.1038 H         1 UNL1        0.0000
     38 H         -19.6825  -44.8053    1.7675 H         1 UNL1        0.0000
     39 H         -18.0811  -42.4430    1.5280 H         1 UNL1        0.0000
     40 H         -14.7926  -39.2333    0.0497 H         1 UNL1        0.0000
     41 H         -15.0977  -39.4884    1.7760 H         1 UNL1        0.0000
     42 H         -15.1032  -37.0764    0.6413 H         1 UNL1        0.0000
     43 H         -16.0556  -37.4833    2.0428 H         1 UNL1        0.0000
     44 H         -19.0242  -38.1359   -0.1155 H         1 UNL1        0.0000
     45 H         -18.6869  -37.7407    1.5607 H         1 UNL1        0.0000
     46 H         -18.6615  -40.2463    0.4188 H         1 UNL1        0.0000
     47 H         -18.0299  -39.7721    2.0057 H         1 UNL1        0.0000
     48 H         -15.5058  -36.6450   -1.6570 H         1 UNL1        0.0000
     49 H         -14.7001  -34.1916   -0.4465 H         1 UNL1        0.0000
     50 H         -15.9964  -34.0508    0.3203 H         1 UNL1        0.0000
     51 H         -15.6466  -34.1198   -2.7922 H         1 UNL1        0.0000
     52 H         -17.1117  -33.9667   -2.4298 H         1 UNL1        0.0000
     53 H         -19.2659  -43.1418   -3.0870 H         1 UNL1        0.0000
     54 H         -20.5761  -44.1336   -1.3233 H         1 UNL1        0.0000
     55 H         -18.6347  -42.3860    5.1803 H         1 UNL1        0.0000
@<TRIPOS>BOND
     1    1   18 1
     2    1   21 1
     3    1   17 am
     4    2   19 1
     5    2   20 1
     6    2   22 am
     7    3    4 1
     8    3   12 2
     9    4    5 am
    10    4   55 1
    11    5   29 2
    12    5    6 1
    13    6    7 ar
    14    6   11 ar
    15    7    8 ar
    16    7   33 1
    17    8   34 1
    18    8    9 ar
    19    9   10 ar
    20    9   35 1
    21   10   11 ar
    22   10   36 1
    23   11   12 1
    24   12   13 1
    25   13   37 1
    26   13   38 1
    27   13   14 1
    28   14   15 ar
    29   14   28 ar
    30   15   39 1
    31   15   16 ar
    32   16   26 ar
    33   16   17 1
    34   17   31 2
    35   18   19 1
    36   18   40 1
    37   18   41 1
    38   19   42 1
    39   19   43 1
    40   20   21 1
    41   20   45 1
    42   20   44 1
    43   21   46 1
    44   21   47 1
    45   22   30 2
    46   22   23 1
    47   23   25 1
    48   23   24 1
    49   23   48 1
    50   24   25 1
    51   24   49 1
    52   24   50 1
    53   25   51 1
    54   25   52 1
    55   26   27 ar
    56   26   32 1
    57   27   28 ar
    58   27   53 1
    59   28   54 1
@<TRIPOS>SUBSTRUCTURE
1 UNL1 1
@<TRIPOS>COMMENT
olaparib
PLANTSproteinTorsions
102
4661 146.3956
5386 52.8506
6210 197.0226
5890 339.5502
4461 35.9138
1390 353.5842
2824 309.6205
4339 303.9950
2732 242.3219
4792 297.3948
3407 2.7658
5134 0.4867
6916 161.8894
7370 23.6688
6038 245.2885
7225 2.5524
3592 331.5223
2064 134.6012
2488 80.6035
1253 27.4209
2069 59.0844
2569 68.4066
3058 76.7841
1748 287.6231
1162 89.7161
1509 177.7558
560 232.2758
1627 44.6404
1941 184.5472
3631 157.0518
2381 41.1453
4221 287.5482
4687 268.6889
6983 155.3243
6668 351.3875
7305 147.7202
8693 199.4961
8404 277.0831
9055 238.0879
7052 61.0490
4708 17.1834
2652 53.1232
4332 268.1479
3011 260.5506
2257 227.8907
2778 236.0237
2057 145.1021
192 152.4247
315 170.6140
1085 241.1846
1007 134.2705
1407 101.0400
4816 234.8573
3131 200.2653
4654 19.1099
5144 72.2982
117 293.7281
6 264.7178
259 68.5985
1979 226.0159
2609 39.9830
2623 139.0729
5910 137.8607
5937 23.2261
2062 347.1662
890 15.0559
5008 152.4057
8602 147.9869
8478 105.0223
8300 32.1342
7721 202.6209
8466 246.7250
7852 297.4974
5849 296.9147
6302 48.7310
7439 327.1314
6284 242.0861
6003 323.6672
7165 263.4869
7623 272.2719
8158 99.6797
8667 201.9490
9078 142.8352
8684 36.0695
7666 353.0097
4231 252.7197
1659 279.5713
489 211.7051
238 249.1138
46 199.0297
83 87.2370
254 238.8820
1066 253.5900
2112 232.1670
4047 180.8150
5402 230.6857
2544 39.5071
4670 147.1873
4426 81.5840
5656 54.6348
7040 159.5017
6282 175.4649
PLANTSmolcadARTstart hb
PLANTSmolcadARTstart HB
LINES
PLANTSmolcadARTstart HBCH
LINES
PLANTSmolcadARTstart HB-CHO
LINES
PLANTSmolcadARTend
PLANTSmolcadARTstart HB_WATER
LINES
PLANTSmolcadARTend

PLANTSmolcadARTend

