@<TRIPOS>MOLECULE
olaparib_entry_00001_conf_91
55 59 1
SMALL
NO_CHARGES


@<TRIPOS>ATOM
      1 N         -44.5992  -64.5800  -19.0910 N.am      1 UNL1        0.0000
      2 N         -46.1676  -66.2293  -17.8387 N.am      1 UNL1        0.0000
      3 N         -48.5469  -60.5998  -23.0479 N.2       1 UNL1        0.0000
      4 N         -49.6274  -59.8978  -23.2896 N.am      1 UNL1        0.0000
      5 C         -49.6400  -58.5579  -23.3285 C.2       1 UNL1        0.0000
      6 C         -48.4616  -57.8764  -23.1038 C.ar      1 UNL1        0.0000
      7 C         -48.4228  -56.4816  -23.1130 C.ar      1 UNL1        0.0000
      8 C         -47.2386  -55.8216  -22.8648 C.ar      1 UNL1        0.0000
      9 C         -46.1293  -56.6010  -22.6130 C.ar      1 UNL1        0.0000
     10 C         -46.1534  -57.9856  -22.6003 C.ar      1 UNL1        0.0000
     11 C         -47.3298  -58.6289  -22.8498 C.ar      1 UNL1        0.0000
     12 C         -47.3400  -59.9975  -22.8161 C.2       1 UNL1        0.0000
     13 C         -46.2057  -60.8923  -22.6266 C.3       1 UNL1        0.0000
     14 C         -45.7594  -60.8785  -21.2060 C.ar      1 UNL1        0.0000
     15 C         -45.0886  -62.0353  -20.7707 C.ar      1 UNL1        0.0000
     16 C         -44.6470  -62.1214  -19.4721 C.ar      1 UNL1        0.0000
     17 C         -43.9409  -63.3270  -18.9830 C.2       1 UNL1        0.0000
     18 C         -43.9484  -65.7655  -18.6347 C.3       1 UNL1        0.0000
     19 C         -44.9250  -66.8463  -18.2236 C.3       1 UNL1        0.0000
     20 C         -46.8857  -65.4776  -18.8737 C.3       1 UNL1        0.0000
     21 C         -45.9297  -64.6258  -19.6684 C.3       1 UNL1        0.0000
     22 C         -46.6851  -66.3273  -16.5437 C.2       1 UNL1        0.0000
     23 C         -46.0831  -67.0254  -15.4047 C.3       1 UNL1        0.0000
     24 C         -46.0708  -68.5355  -15.4788 C.3       1 UNL1        0.0000
     25 C         -46.9107  -67.8553  -14.4903 C.3       1 UNL1        0.0000
     26 C         -44.8244  -61.1199  -18.5472 C.ar      1 UNL1        0.0000
     27 C         -45.4812  -59.9880  -18.9744 C.ar      1 UNL1        0.0000
     28 C         -45.9339  -59.8973  -20.2985 C.ar      1 UNL1        0.0000
     29 O         -50.6655  -57.8674  -23.5598 O.2       1 UNL1        0.0000
     30 O         -47.8059  -65.7506  -16.3062 O.2       1 UNL1        0.0000
     31 O         -42.7937  -63.2726  -18.4834 O.2       1 UNL1        0.0000
     32 F         -44.3676  -61.2537  -17.2681 F         1 UNL1        0.0000
     33 H         -49.2816  -55.9432  -23.3066 H         1 UNL1        0.0000
     34 H         -47.1849  -54.7919  -22.8667 H         1 UNL1        0.0000
     35 H         -45.2330  -56.1268  -22.4234 H         1 UNL1        0.0000
     36 H         -45.2942  -58.5234  -22.4055 H         1 UNL1        0.0000
     37 H         -45.3980  -60.5747  -23.2525 H         1 UNL1        0.0000
     38 H         -46.5042  -61.8874  -22.8834 H         1 UNL1        0.0000
     39 H         -44.9286  -62.8174  -21.4244 H         1 UNL1        0.0000
     40 H         -43.3366  -65.5176  -17.7923 H         1 UNL1        0.0000
     41 H         -43.3661  -66.1478  -19.4476 H         1 UNL1        0.0000
     42 H         -44.5254  -67.3964  -17.3978 H         1 UNL1        0.0000
     43 H         -45.0902  -67.5160  -19.0420 H         1 UNL1        0.0000
     44 H         -47.6153  -64.8475  -18.4098 H         1 UNL1        0.0000
     45 H         -47.3629  -66.1695  -19.5360 H         1 UNL1        0.0000
     46 H         -46.3159  -63.6288  -19.7124 H         1 UNL1        0.0000
     47 H         -45.8423  -65.0628  -20.6403 H         1 UNL1        0.0000
     48 H         -45.3798  -66.2345  -15.2491 H         1 UNL1        0.0000
     49 H         -45.2055  -69.0798  -15.1622 H         1 UNL1        0.0000
     50 H         -46.2414  -69.2570  -16.2503 H         1 UNL1        0.0000
     51 H         -46.6598  -67.9126  -13.4517 H         1 UNL1        0.0000
     52 H         -47.9514  -67.8872  -14.2469 H         1 UNL1        0.0000
     53 H         -45.6401  -59.2058  -18.3194 H         1 UNL1        0.0000
     54 H         -46.4238  -59.0377  -20.5929 H         1 UNL1        0.0000
     55 H         -50.4714  -60.3788  -23.4511 H         1 UNL1        0.0000
@<TRIPOS>BOND
     1    1   18 1
     2    1   21 1
     3    1   17 am
     4    2   19 1
     5    2   20 1
     6    2   22 am
     7    3    4 1
     8    3   12 2
     9    4    5 am
    10    4   55 1
    11    5   29 2
    12    5    6 1
    13    6    7 ar
    14    6   11 ar
    15    7    8 ar
    16    7   33 1
    17    8   34 1
    18    8    9 ar
    19    9   10 ar
    20    9   35 1
    21   10   11 ar
    22   10   36 1
    23   11   12 1
    24   12   13 1
    25   13   37 1
    26   13   38 1
    27   13   14 1
    28   14   15 ar
    29   14   28 ar
    30   15   39 1
    31   15   16 ar
    32   16   26 ar
    33   16   17 1
    34   17   31 2
    35   18   19 1
    36   18   40 1
    37   18   41 1
    38   19   42 1
    39   19   43 1
    40   20   21 1
    41   20   45 1
    42   20   44 1
    43   21   46 1
    44   21   47 1
    45   22   30 2
    46   22   23 1
    47   23   25 1
    48   23   24 1
    49   23   48 1
    50   24   25 1
    51   24   49 1
    52   24   50 1
    53   25   51 1
    54   25   52 1
    55   26   27 ar
    56   26   32 1
    57   27   28 ar
    58   27   53 1
    59   28   54 1
@<TRIPOS>SUBSTRUCTURE
1 UNL1 1
@<TRIPOS>COMMENT
olaparib
PLANTSproteinTorsions
102
4661 100.1015
5386 43.3267
6210 20.0344
5890 39.4239
4461 167.0359
1390 143.6512
2824 336.0999
4339 39.2551
2732 88.6729
4792 149.9157
3407 235.8408
5134 249.6816
6916 31.5180
7370 25.9162
6038 20.0679
7225 23.4442
3592 144.2230
2064 165.9170
2488 66.7008
1253 183.5493
2069 110.1500
2569 133.8847
3058 180.4642
1748 122.0219
1162 142.7725
1509 11.6045
560 51.2360
1627 139.6180
1941 31.5942
3631 203.2714
2381 99.6144
4221 180.6288
4687 20.2097
6983 10.3568
6668 24.1475
7305 232.3221
8693 19.3211
8404 94.6614
9055 322.5283
7052 18.5462
4708 251.1787
2652 325.0689
4332 236.3593
3011 2.2414
2257 205.6090
2778 309.8309
2057 356.6231
192 142.3146
315 188.8728
1085 124.9885
1007 149.8568
1407 114.6863
4816 104.3809
3131 25.7806
4654 220.5516
5144 184.6822
117 44.2508
6 199.3985
259 127.8084
1979 255.9524
2609 143.5854
2623 83.5066
5910 138.0176
5937 37.7539
2062 36.0506
890 225.5659
5008 178.7769
8602 23.5871
8478 28.2676
8300 207.8783
7721 246.7060
8466 276.4802
7852 147.1023
5849 61.6080
6302 107.6201
7439 230.0019
6284 46.6772
6003 261.2017
7165 266.2195
7623 296.3979
8158 94.8784
8667 220.0805
9078 252.9909
8684 234.6780
7666 202.9463
4231 249.9384
1659 213.4695
489 116.1899
238 251.9578
46 10.2878
83 206.5944
254 213.2097
1066 42.2121
2112 178.7258
4047 148.3786
5402 130.6284
2544 254.7368
4670 152.6764
4426 150.3941
5656 225.7114
7040 259.3152
6282 193.0362
PLANTSmolcadARTstart hb
PLANTSmolcadARTstart HB
LINES
-47.8059 -65.7506 -16.3062 -47.292 -63.904 -15.412 0 255 0 5
-47.8059 -65.7506 -16.3062 -49.314 -65.007 -15.825 0 255 0 5
PLANTSmolcadARTstart HBCH
LINES
PLANTSmolcadARTstart HB-CHO
LINES
PLANTSmolcadARTend
PLANTSmolcadARTstart HB_WATER
LINES
PLANTSmolcadARTend

PLANTSmolcadARTend

