@<TRIPOS>MOLECULE
olaparib_entry_00001_conf_80
55 59 1
SMALL
NO_CHARGES


@<TRIPOS>ATOM
      1 N          -1.5251  -71.4739    8.7487 N.am      1 UNL1        0.0000
      2 N          -3.6286  -72.8868    9.3209 N.am      1 UNL1        0.0000
      3 N           2.8286  -75.6525    5.1042 N.2       1 UNL1        0.0000
      4 N           3.9287  -76.1424    4.5861 N.am      1 UNL1        0.0000
      5 C           4.0605  -76.4379    3.2853 C.2       1 UNL1        0.0000
      6 C           2.9896  -76.2189    2.4433 C.ar      1 UNL1        0.0000
      7 C           3.0662  -76.5277    1.0846 C.ar      1 UNL1        0.0000
      8 C           1.9767  -76.3205    0.2664 C.ar      1 UNL1        0.0000
      9 C           0.8410  -75.8066    0.8556 C.ar      1 UNL1        0.0000
     10 C           0.7507  -75.4960    2.2022 C.ar      1 UNL1        0.0000
     11 C           1.8354  -75.7024    3.0027 C.ar      1 UNL1        0.0000
     12 C           1.7237  -75.4066    4.3348 C.2       1 UNL1        0.0000
     13 C           0.5900  -74.8004    5.0205 C.3       1 UNL1        0.0000
     14 C           1.0130  -73.5705    5.7455 C.ar      1 UNL1        0.0000
     15 C          -0.0235  -72.8371    6.3500 C.ar      1 UNL1        0.0000
     16 C           0.2662  -71.6807    7.0337 C.ar      1 UNL1        0.0000
     17 C          -0.8031  -70.8849    7.6778 C.2       1 UNL1        0.0000
     18 C          -2.5600  -70.7360    9.3978 C.3       1 UNL1        0.0000
     19 C          -3.6108  -71.6291   10.0216 C.3       1 UNL1        0.0000
     20 C          -2.4038  -73.6928    9.3697 C.3       1 UNL1        0.0000
     21 C          -1.1900  -72.8241    9.1616 C.3       1 UNL1        0.0000
     22 C          -4.7494  -73.3393    8.6186 C.2       1 UNL1        0.0000
     23 C          -6.0321  -72.6476    8.4661 C.3       1 UNL1        0.0000
     24 C          -7.0926  -72.9751    9.4928 C.3       1 UNL1        0.0000
     25 C          -7.2653  -73.3923    8.0995 C.3       1 UNL1        0.0000
     26 C           1.5407  -71.1830    7.1679 C.ar      1 UNL1        0.0000
     27 C           2.5544  -71.9016    6.5757 C.ar      1 UNL1        0.0000
     28 C           2.2622  -73.0814    5.8765 C.ar      1 UNL1        0.0000
     29 O           5.1074  -76.9070    2.7698 O.2       1 UNL1        0.0000
     30 O          -4.6663  -74.4797    8.0375 O.2       1 UNL1        0.0000
     31 O          -1.0843  -69.7215    7.3088 O.2       1 UNL1        0.0000
     32 F           1.7769  -70.0287    7.8568 F         1 UNL1        0.0000
     33 H           3.9400  -76.9111    0.6916 H         1 UNL1        0.0000
     34 H           2.0094  -76.5404   -0.7405 H         1 UNL1        0.0000
     35 H           0.0135  -75.6451    0.2612 H         1 UNL1        0.0000
     36 H          -0.1239  -75.1136    2.5949 H         1 UNL1        0.0000
     37 H           0.1865  -75.5011    5.7214 H         1 UNL1        0.0000
     38 H          -0.1504  -74.5343    4.2950 H         1 UNL1        0.0000
     39 H          -0.9989  -73.1662    6.2801 H         1 UNL1        0.0000
     40 H          -3.0329  -70.1024    8.6763 H         1 UNL1        0.0000
     41 H          -2.1078  -70.1695   10.1856 H         1 UNL1        0.0000
     42 H          -4.5701  -71.1618    9.9465 H         1 UNL1        0.0000
     43 H          -3.3816  -71.7919   11.0543 H         1 UNL1        0.0000
     44 H          -2.4398  -74.4360    8.6010 H         1 UNL1        0.0000
     45 H          -2.3336  -74.1585   10.3305 H         1 UNL1        0.0000
     46 H          -0.5771  -73.2688    8.4055 H         1 UNL1        0.0000
     47 H          -0.6802  -72.7552   10.0989 H         1 UNL1        0.0000
     48 H          -5.5530  -71.7756    8.0731 H         1 UNL1        0.0000
     49 H          -7.7040  -72.1958    9.8980 H         1 UNL1        0.0000
     50 H          -7.1013  -73.4732   10.4398 H         1 UNL1        0.0000
     51 H          -8.0101  -72.9206    7.4930 H         1 UNL1        0.0000
     52 H          -7.4579  -74.3279    7.6191 H         1 UNL1        0.0000
     53 H           3.5302  -71.5715    6.6469 H         1 UNL1        0.0000
     54 H           3.0410  -73.6011    5.4415 H         1 UNL1        0.0000
     55 H           4.6965  -76.3005    5.1822 H         1 UNL1        0.0000
@<TRIPOS>BOND
     1    1   18 1
     2    1   21 1
     3    1   17 am
     4    2   19 1
     5    2   20 1
     6    2   22 am
     7    3    4 1
     8    3   12 2
     9    4    5 am
    10    4   55 1
    11    5   29 2
    12    5    6 1
    13    6    7 ar
    14    6   11 ar
    15    7    8 ar
    16    7   33 1
    17    8   34 1
    18    8    9 ar
    19    9   10 ar
    20    9   35 1
    21   10   11 ar
    22   10   36 1
    23   11   12 1
    24   12   13 1
    25   13   37 1
    26   13   38 1
    27   13   14 1
    28   14   15 ar
    29   14   28 ar
    30   15   39 1
    31   15   16 ar
    32   16   26 ar
    33   16   17 1
    34   17   31 2
    35   18   19 1
    36   18   40 1
    37   18   41 1
    38   19   42 1
    39   19   43 1
    40   20   21 1
    41   20   45 1
    42   20   44 1
    43   21   46 1
    44   21   47 1
    45   22   30 2
    46   22   23 1
    47   23   25 1
    48   23   24 1
    49   23   48 1
    50   24   25 1
    51   24   49 1
    52   24   50 1
    53   25   51 1
    54   25   52 1
    55   26   27 ar
    56   26   32 1
    57   27   28 ar
    58   27   53 1
    59   28   54 1
@<TRIPOS>SUBSTRUCTURE
1 UNL1 1
@<TRIPOS>COMMENT
olaparib
PLANTSproteinTorsions
102
4661 98.2501
5386 80.7459
6210 137.1646
5890 165.7131
4461 42.2437
1390 122.7831
2824 77.1129
4339 72.7640
2732 262.1014
4792 348.8234
3407 350.4111
5134 9.2107
6916 208.2365
7370 103.4515
6038 148.2593
7225 109.9617
3592 345.7803
2064 211.4801
2488 215.0523
1253 67.7162
2069 53.9165
2569 10.3053
3058 244.7366
1748 99.0207
1162 348.4743
1509 119.2729
560 105.3833
1627 101.0357
1941 246.6518
3631 12.9124
2381 222.4664
4221 66.0496
4687 243.9973
6983 97.3545
6668 192.9124
7305 243.9012
8693 202.0490
8404 18.4103
9055 253.4796
7052 314.1673
4708 76.4489
2652 211.3848
4332 179.1047
3011 167.9824
2257 310.4182
2778 137.7897
2057 249.2246
192 262.1747
315 165.8409
1085 316.0945
1007 331.1653
1407 121.1228
4816 325.5580
3131 229.2499
4654 14.4629
5144 87.5088
117 195.5402
6 65.1823
259 91.6472
1979 169.3492
2609 264.9594
2623 195.5306
5910 183.1240
5937 300.1377
2062 279.9745
890 142.4601
5008 252.9384
8602 74.6347
8478 108.4548
8300 240.8944
7721 244.1387
8466 142.8245
7852 209.3618
5849 218.9933
6302 172.6991
7439 302.5399
6284 358.4494
6003 169.5631
7165 162.3285
7623 111.5845
8158 251.7367
8667 66.3619
9078 101.5309
8684 213.9485
7666 216.1410
4231 267.4973
1659 232.5759
489 113.8350
238 245.5244
46 8.1161
83 342.7384
254 184.2147
1066 245.3472
2112 203.5547
4047 335.9806
5402 210.0598
2544 163.8073
4670 252.7795
4426 265.3327
5656 192.5177
7040 208.5952
6282 264.0718
PLANTSmolcadARTstart hb
PLANTSmolcadARTstart HB
LINES
PLANTSmolcadARTstart HBCH
LINES
PLANTSmolcadARTstart HB-CHO
LINES
PLANTSmolcadARTend
PLANTSmolcadARTstart HB_WATER
LINES
PLANTSmolcadARTend

PLANTSmolcadARTend

