@<TRIPOS>MOLECULE
olaparib_entry_00001_conf_11
55 59 1
SMALL
NO_CHARGES


@<TRIPOS>ATOM
      1 N         -26.2592  -32.7656    2.6607 N.am      1 UNL1        0.0000
      2 N         -25.3389  -30.5911    3.7438 N.am      1 UNL1        0.0000
      3 N         -23.4526  -39.1593    2.2248 N.2       1 UNL1        0.0000
      4 N         -23.5060  -40.4141    1.8489 N.am      1 UNL1        0.0000
      5 C         -22.7132  -41.3680    2.3570 C.2       1 UNL1        0.0000
      6 C         -21.7922  -41.0201    3.3238 C.ar      1 UNL1        0.0000
      7 C         -20.9290  -41.9697    3.8717 C.ar      1 UNL1        0.0000
      8 C         -20.0024  -41.5951    4.8208 C.ar      1 UNL1        0.0000
      9 C         -19.9810  -40.2648    5.1828 C.ar      1 UNL1        0.0000
     10 C         -20.8312  -39.3119    4.6472 C.ar      1 UNL1        0.0000
     11 C         -21.7461  -39.6935    3.7107 C.ar      1 UNL1        0.0000
     12 C         -22.5672  -38.7357    3.1786 C.2       1 UNL1        0.0000
     13 C         -22.6554  -37.3302    3.5527 C.3       1 UNL1        0.0000
     14 C         -23.4811  -36.5772    2.5687 C.ar      1 UNL1        0.0000
     15 C         -24.4853  -35.7610    3.1194 C.ar      1 UNL1        0.0000
     16 C         -25.3063  -35.0344    2.2908 C.ar      1 UNL1        0.0000
     17 C         -26.3744  -34.1690    2.8399 C.2       1 UNL1        0.0000
     18 C         -27.2717  -31.8992    3.1718 C.3       1 UNL1        0.0000
     19 C         -26.7519  -30.5112    3.4791 C.3       1 UNL1        0.0000
     20 C         -24.4820  -31.0560    2.6476 C.3       1 UNL1        0.0000
     21 C         -25.1046  -32.2411    1.9554 C.3       1 UNL1        0.0000
     22 C         -24.7863  -30.2479    4.9811 C.2       1 UNL1        0.0000
     23 C         -25.5066  -29.7838    6.1697 C.3       1 UNL1        0.0000
     24 C         -26.1652  -28.4270    6.0629 C.3       1 UNL1        0.0000
     25 C         -25.0195  -28.6193    6.9548 C.3       1 UNL1        0.0000
     26 C         -25.2040  -35.0555    0.9200 C.ar      1 UNL1        0.0000
     27 C         -24.2208  -35.8548    0.3820 C.ar      1 UNL1        0.0000
     28 C         -23.3820  -36.5983    1.2245 C.ar      1 UNL1        0.0000
     29 O         -22.7503  -42.5765    2.0105 O.2       1 UNL1        0.0000
     30 O         -23.5138  -30.3433    5.1109 O.2       1 UNL1        0.0000
     31 O         -27.3641  -34.6350    3.4499 O.2       1 UNL1        0.0000
     32 F         -26.0446  -34.3157    0.1397 F         1 UNL1        0.0000
     33 H         -20.9846  -42.9539    3.5666 H         1 UNL1        0.0000
     34 H         -19.3544  -42.2786    5.2404 H         1 UNL1        0.0000
     35 H         -19.2941  -39.9631    5.8908 H         1 UNL1        0.0000
     36 H         -20.7742  -38.3274    4.9521 H         1 UNL1        0.0000
     37 H         -21.6714  -36.9107    3.5809 H         1 UNL1        0.0000
     38 H         -23.1168  -37.2576    4.5156 H         1 UNL1        0.0000
     39 H         -24.6055  -35.7082    4.1428 H         1 UNL1        0.0000
     40 H         -27.6646  -32.3251    4.0717 H         1 UNL1        0.0000
     41 H         -28.0255  -31.8028    2.4178 H         1 UNL1        0.0000
     42 H         -27.2572  -30.1201    4.3370 H         1 UNL1        0.0000
     43 H         -26.9291  -29.8648    2.6446 H         1 UNL1        0.0000
     44 H         -23.5287  -31.3401    3.0413 H         1 UNL1        0.0000
     45 H         -24.3671  -30.2636    1.9378 H         1 UNL1        0.0000
     46 H         -24.3712  -33.0166    1.8794 H         1 UNL1        0.0000
     47 H         -25.4385  -31.9123    0.9943 H         1 UNL1        0.0000
     48 H         -25.7885  -30.7825    6.4297 H         1 UNL1        0.0000
     49 H         -27.1420  -28.2724    6.4719 H         1 UNL1        0.0000
     50 H         -26.3967  -27.7589    5.2598 H         1 UNL1        0.0000
     51 H         -25.1627  -28.5961    8.0150 H         1 UNL1        0.0000
     52 H         -24.0714  -28.1376    7.0663 H         1 UNL1        0.0000
     53 H         -24.1012  -35.9063   -0.6423 H         1 UNL1        0.0000
     54 H         -22.6531  -37.1899    0.7953 H         1 UNL1        0.0000
     55 H         -24.1616  -40.6684    1.1595 H         1 UNL1        0.0000
@<TRIPOS>BOND
     1    1   18 1
     2    1   21 1
     3    1   17 am
     4    2   19 1
     5    2   20 1
     6    2   22 am
     7    3    4 1
     8    3   12 2
     9    4    5 am
    10    4   55 1
    11    5   29 2
    12    5    6 1
    13    6    7 ar
    14    6   11 ar
    15    7    8 ar
    16    7   33 1
    17    8   34 1
    18    8    9 ar
    19    9   10 ar
    20    9   35 1
    21   10   11 ar
    22   10   36 1
    23   11   12 1
    24   12   13 1
    25   13   37 1
    26   13   38 1
    27   13   14 1
    28   14   15 ar
    29   14   28 ar
    30   15   39 1
    31   15   16 ar
    32   16   26 ar
    33   16   17 1
    34   17   31 2
    35   18   19 1
    36   18   40 1
    37   18   41 1
    38   19   42 1
    39   19   43 1
    40   20   21 1
    41   20   45 1
    42   20   44 1
    43   21   46 1
    44   21   47 1
    45   22   30 2
    46   22   23 1
    47   23   25 1
    48   23   24 1
    49   23   48 1
    50   24   25 1
    51   24   49 1
    52   24   50 1
    53   25   51 1
    54   25   52 1
    55   26   27 ar
    56   26   32 1
    57   27   28 ar
    58   27   53 1
    59   28   54 1
@<TRIPOS>SUBSTRUCTURE
1 UNL1 1
@<TRIPOS>COMMENT
olaparib
PLANTSproteinTorsions
102
4661 148.8164
5386 101.0529
6210 2.8935
5890 60.0738
4461 303.7950
1390 208.8799
2824 217.5913
4339 89.1961
2732 109.9707
4792 179.5973
3407 59.8853
5134 191.0595
6916 18.9068
7370 160.7627
6038 44.6529
7225 104.2189
3592 294.9275
2064 44.6016
2488 98.4139
1253 23.8104
2069 189.4124
2569 277.4175
3058 181.0900
1748 93.3062
1162 200.0878
1509 353.6686
560 122.3036
1627 241.5331
1941 43.5586
3631 177.7809
2381 45.4894
4221 340.6164
4687 349.8092
6983 53.1239
6668 137.7900
7305 232.4182
8693 13.0532
8404 260.9584
9055 261.1844
7052 245.9307
4708 20.8470
2652 320.6037
4332 178.7192
3011 175.7493
2257 172.3396
2778 240.5987
2057 47.8984
192 78.0203
315 133.9144
1085 168.3280
1007 271.7992
1407 169.7486
4816 272.1078
3131 25.2293
4654 71.5012
5144 72.4325
117 141.1051
6 163.6183
259 236.2980
1979 195.8196
2609 263.6108
2623 130.2649
5910 310.8093
5937 61.5500
2062 48.1188
890 213.7746
5008 12.4074
8602 338.8716
8478 169.3382
8300 147.3168
7721 132.0045
8466 327.5824
7852 296.6745
5849 233.0176
6302 31.8370
7439 241.6009
6284 255.7665
6003 119.2021
7165 264.9187
7623 170.0039
8158 268.0096
8667 58.8604
9078 160.0658
8684 178.1171
7666 125.3716
4231 240.2592
1659 5.4873
489 179.7652
238 155.0147
46 122.6712
83 125.0268
254 160.1455
1066 253.6218
2112 280.6320
4047 146.4501
5402 90.3139
2544 170.7590
4670 242.4186
4426 51.0500
5656 230.1784
7040 271.0612
6282 308.5040
PLANTSmolcadARTstart hb
PLANTSmolcadARTstart HB
LINES
PLANTSmolcadARTstart HBCH
LINES
PLANTSmolcadARTstart HB-CHO
LINES
PLANTSmolcadARTend
PLANTSmolcadARTstart HB_WATER
LINES
PLANTSmolcadARTend

PLANTSmolcadARTend

