@<TRIPOS>MOLECULE
olaparib_entry_00001_conf_59
55 59 1
SMALL
NO_CHARGES


@<TRIPOS>ATOM
      1 N         -20.2531  -56.7941  -17.9129 N.am      1 UNL1        0.0000
      2 N         -18.1754  -55.9695  -19.2364 N.am      1 UNL1        0.0000
      3 N         -19.9892  -54.3583  -11.5061 N.2       1 UNL1        0.0000
      4 N         -20.4949  -53.3097  -10.9033 N.am      1 UNL1        0.0000
      5 C         -19.9969  -52.0726  -11.0389 C.2       1 UNL1        0.0000
      6 C         -18.8973  -51.8852  -11.8511 C.ar      1 UNL1        0.0000
      7 C         -18.3269  -50.6219  -12.0116 C.ar      1 UNL1        0.0000
      8 C         -17.2157  -50.4620  -12.8111 C.ar      1 UNL1        0.0000
      9 C         -16.7172  -51.5930  -13.4223 C.ar      1 UNL1        0.0000
     10 C         -17.2728  -52.8526  -13.2717 C.ar      1 UNL1        0.0000
     11 C         -18.3737  -52.9995  -12.4804 C.ar      1 UNL1        0.0000
     12 C         -18.8999  -54.2543  -12.3282 C.2       1 UNL1        0.0000
     13 C         -18.4782  -55.4830  -12.9882 C.3       1 UNL1        0.0000
     14 C         -19.6524  -56.2031  -13.5540 C.ar      1 UNL1        0.0000
     15 C         -19.8917  -55.9894  -14.9232 C.ar      1 UNL1        0.0000
     16 C         -20.9590  -56.6028  -15.5343 C.ar      1 UNL1        0.0000
     17 C         -21.2391  -56.3951  -16.9730 C.2       1 UNL1        0.0000
     18 C         -20.4891  -56.6143  -19.3089 C.3       1 UNL1        0.0000
     19 C         -19.2089  -56.4721  -20.1039 C.3       1 UNL1        0.0000
     20 C         -17.7941  -56.8127  -18.0982 C.3       1 UNL1        0.0000
     21 C         -19.0180  -57.3810  -17.4271 C.3       1 UNL1        0.0000
     22 C         -17.5506  -54.7371  -19.4486 C.2       1 UNL1        0.0000
     23 C         -17.8288  -53.7817  -20.5241 C.3       1 UNL1        0.0000
     24 C         -17.0883  -54.0058  -21.8232 C.3       1 UNL1        0.0000
     25 C         -16.7847  -52.8351  -20.9970 C.3       1 UNL1        0.0000
     26 C         -21.8304  -57.4354  -14.8730 C.ar      1 UNL1        0.0000
     27 C         -21.5952  -57.6438  -13.5327 C.ar      1 UNL1        0.0000
     28 C         -20.5077  -57.0187  -12.9058 C.ar      1 UNL1        0.0000
     29 O         -20.4685  -51.0547  -10.4703 O.2       1 UNL1        0.0000
     30 O         -16.6332  -54.3860  -18.6238 O.2       1 UNL1        0.0000
     31 O         -22.3083  -55.8839  -17.3783 O.2       1 UNL1        0.0000
     32 F         -22.8768  -58.0208  -15.5250 F         1 UNL1        0.0000
     33 H         -18.7378  -49.8059  -11.5316 H         1 UNL1        0.0000
     34 H         -16.7769  -49.5387  -12.9455 H         1 UNL1        0.0000
     35 H         -15.8850  -51.4956  -14.0241 H         1 UNL1        0.0000
     36 H         -16.8606  -53.6684  -13.7511 H         1 UNL1        0.0000
     37 H         -17.9872  -56.1141  -12.2772 H         1 UNL1        0.0000
     38 H         -17.8101  -55.2344  -13.7864 H         1 UNL1        0.0000
     39 H         -19.2680  -55.3736  -15.4674 H         1 UNL1        0.0000
     40 H         -21.0776  -55.7309  -19.4457 H         1 UNL1        0.0000
     41 H         -20.9964  -57.4868  -19.6660 H         1 UNL1        0.0000
     42 H         -19.3626  -55.7898  -20.9133 H         1 UNL1        0.0000
     43 H         -18.9202  -57.4237  -20.4994 H         1 UNL1        0.0000
     44 H         -17.2469  -56.2248  -17.3914 H         1 UNL1        0.0000
     45 H         -17.1892  -57.6209  -18.4531 H         1 UNL1        0.0000
     46 H         -18.9460  -57.1998  -16.3749 H         1 UNL1        0.0000
     47 H         -19.0504  -58.4261  -17.6505 H         1 UNL1        0.0000
     48 H         -18.8412  -53.6612  -20.2004 H         1 UNL1        0.0000
     49 H         -17.5970  -53.8847  -22.7569 H         1 UNL1        0.0000
     50 H         -16.5164  -54.8084  -22.2399 H         1 UNL1        0.0000
     51 H         -17.0660  -51.8597  -21.3354 H         1 UNL1        0.0000
     52 H         -15.8899  -52.4354  -20.5694 H         1 UNL1        0.0000
     53 H         -22.2198  -58.2609  -12.9894 H         1 UNL1        0.0000
     54 H         -20.3541  -57.1916  -11.8998 H         1 UNL1        0.0000
     55 H         -21.2799  -53.4373  -10.3226 H         1 UNL1        0.0000
@<TRIPOS>BOND
     1    1   18 1
     2    1   21 1
     3    1   17 am
     4    2   19 1
     5    2   20 1
     6    2   22 am
     7    3    4 1
     8    3   12 2
     9    4    5 am
    10    4   55 1
    11    5   29 2
    12    5    6 1
    13    6    7 ar
    14    6   11 ar
    15    7    8 ar
    16    7   33 1
    17    8   34 1
    18    8    9 ar
    19    9   10 ar
    20    9   35 1
    21   10   11 ar
    22   10   36 1
    23   11   12 1
    24   12   13 1
    25   13   37 1
    26   13   38 1
    27   13   14 1
    28   14   15 ar
    29   14   28 ar
    30   15   39 1
    31   15   16 ar
    32   16   26 ar
    33   16   17 1
    34   17   31 2
    35   18   19 1
    36   18   40 1
    37   18   41 1
    38   19   42 1
    39   19   43 1
    40   20   21 1
    41   20   45 1
    42   20   44 1
    43   21   46 1
    44   21   47 1
    45   22   30 2
    46   22   23 1
    47   23   25 1
    48   23   24 1
    49   23   48 1
    50   24   25 1
    51   24   49 1
    52   24   50 1
    53   25   51 1
    54   25   52 1
    55   26   27 ar
    56   26   32 1
    57   27   28 ar
    58   27   53 1
    59   28   54 1
@<TRIPOS>SUBSTRUCTURE
1 UNL1 1
@<TRIPOS>COMMENT
olaparib
PLANTSproteinTorsions
102
4661 122.8962
5386 4.7468
6210 341.5420
5890 69.8555
4461 270.4629
1390 199.2103
2824 62.2293
4339 354.6635
2732 342.7856
4792 58.8950
3407 356.0605
5134 33.9248
6916 288.3053
7370 29.5229
6038 91.6491
7225 25.8825
3592 247.3592
2064 28.8671
2488 228.7462
1253 71.9192
2069 180.8476
2569 202.1868
3058 342.8813
1748 300.6292
1162 194.3240
1509 110.6903
560 12.8900
1627 49.2161
1941 28.8142
3631 240.2054
2381 54.1906
4221 164.2601
4687 86.2376
6983 356.0236
6668 106.2825
7305 41.7360
8693 306.1678
8404 5.4518
9055 65.2604
7052 347.4360
4708 49.0564
2652 342.5353
4332 96.9585
3011 230.6817
2257 109.0622
2778 133.3292
2057 262.4474
192 355.0492
315 122.8205
1085 197.2490
1007 227.4029
1407 61.1245
4816 75.6182
3131 334.9742
4654 285.5735
5144 27.3729
117 306.1597
6 39.3091
259 30.0507
1979 288.3741
2609 218.9643
2623 202.7946
5910 132.1206
5937 241.9971
2062 163.3068
890 31.9080
5008 74.7187
8602 15.6007
8478 273.1209
8300 253.3641
7721 11.7056
8466 182.7339
7852 63.5134
5849 83.8079
6302 206.4850
7439 122.7518
6284 86.4619
6003 209.4387
7165 245.8569
7623 231.0872
8158 214.4050
8667 244.1048
9078 237.7079
8684 232.2224
7666 31.4057
4231 313.6185
1659 236.6261
489 258.5276
238 254.2368
46 45.5817
83 131.8718
254 167.0183
1066 151.0264
2112 104.4485
4047 167.8211
5402 236.7205
2544 102.0967
4670 42.3192
4426 282.5446
5656 201.5806
7040 178.8430
6282 110.7866
PLANTSmolcadARTstart hb
PLANTSmolcadARTstart HB
LINES
-20.4685 -51.0547 -10.4703 -22.179 -50.933 -10.369 0 255 0 5
PLANTSmolcadARTstart HBCH
LINES
PLANTSmolcadARTstart HB-CHO
LINES
PLANTSmolcadARTend
PLANTSmolcadARTstart HB_WATER
LINES
PLANTSmolcadARTend

PLANTSmolcadARTend

