@<TRIPOS>MOLECULE
olaparib_entry_00001_conf_14
55 59 1
SMALL
NO_CHARGES


@<TRIPOS>ATOM
      1 N         -44.1419  -54.6527  -19.0194 N.am      1 UNL1        0.0000
      2 N         -45.7557  -56.6210  -18.5002 N.am      1 UNL1        0.0000
      3 N         -46.4066  -52.0206  -23.5785 N.2       1 UNL1        0.0000
      4 N         -47.4866  -52.4236  -24.2029 N.am      1 UNL1        0.0000
      5 C         -48.6339  -51.7304  -24.2090 C.2       1 UNL1        0.0000
      6 C         -48.6892  -50.5326  -23.5264 C.ar      1 UNL1        0.0000
      7 C         -49.8641  -49.7810  -23.4837 C.ar      1 UNL1        0.0000
      8 C         -49.9023  -48.5979  -22.7777 C.ar      1 UNL1        0.0000
      9 C         -48.7439  -48.2157  -22.1349 C.ar      1 UNL1        0.0000
     10 C         -47.5713  -48.9517  -22.1684 C.ar      1 UNL1        0.0000
     11 C         -47.5433  -50.1196  -22.8720 C.ar      1 UNL1        0.0000
     12 C         -46.3814  -50.8437  -22.8803 C.2       1 UNL1        0.0000
     13 C         -45.1008  -50.4798  -22.2881 C.3       1 UNL1        0.0000
     14 C         -45.1174  -50.7170  -20.8181 C.ar      1 UNL1        0.0000
     15 C         -44.4378  -51.8687  -20.3828 C.ar      1 UNL1        0.0000
     16 C         -44.4059  -52.1784  -19.0442 C.ar      1 UNL1        0.0000
     17 C         -43.7019  -53.3854  -18.5553 C.2       1 UNL1        0.0000
     18 C         -43.4849  -55.8389  -18.5741 C.3       1 UNL1        0.0000
     19 C         -44.3869  -57.0540  -18.6088 C.3       1 UNL1        0.0000
     20 C         -46.2705  -55.7666  -19.5758 C.3       1 UNL1        0.0000
     21 C         -45.2588  -54.7120  -19.9439 C.3       1 UNL1        0.0000
     22 C         -46.5753  -56.9845  -17.4276 C.2       1 UNL1        0.0000
     23 C         -46.2057  -57.8143  -16.2778 C.3       1 UNL1        0.0000
     24 C         -45.6216  -59.1722  -16.5956 C.3       1 UNL1        0.0000
     25 C         -46.9418  -59.0685  -15.9699 C.3       1 UNL1        0.0000
     26 C         -45.0126  -51.4115  -18.0779 C.ar      1 UNL1        0.0000
     27 C         -45.6775  -50.2845  -18.5052 C.ar      1 UNL1        0.0000
     28 C         -45.7129  -49.9660  -19.8703 C.ar      1 UNL1        0.0000
     29 O         -49.6794  -52.0996  -24.8027 O.2       1 UNL1        0.0000
     30 O         -47.7841  -56.5553  -17.4310 O.2       1 UNL1        0.0000
     31 O         -42.7413  -53.3199  -17.7543 O.2       1 UNL1        0.0000
     32 F         -44.9529  -51.7622  -16.7603 F         1 UNL1        0.0000
     33 H         -50.7055  -50.1109  -23.9819 H         1 UNL1        0.0000
     34 H         -50.7585  -48.0251  -22.7320 H         1 UNL1        0.0000
     35 H         -48.7514  -47.3339  -21.5996 H         1 UNL1        0.0000
     36 H         -46.7304  -48.6217  -21.6690 H         1 UNL1        0.0000
     37 H         -44.9076  -49.4442  -22.4755 H         1 UNL1        0.0000
     38 H         -44.3338  -51.0847  -22.7253 H         1 UNL1        0.0000
     39 H         -43.9648  -52.4797  -21.0666 H         1 UNL1        0.0000
     40 H         -43.1508  -55.6885  -17.5685 H         1 UNL1        0.0000
     41 H         -42.6668  -56.0243  -19.2392 H         1 UNL1        0.0000
     42 H         -44.1485  -57.7018  -17.7916 H         1 UNL1        0.0000
     43 H         -44.2455  -57.5843  -19.5276 H         1 UNL1        0.0000
     44 H         -47.1707  -55.2905  -19.2478 H         1 UNL1        0.0000
     45 H         -46.4654  -56.3723  -20.4361 H         1 UNL1        0.0000
     46 H         -45.7456  -53.7590  -19.9508 H         1 UNL1        0.0000
     47 H         -44.8658  -54.9660  -20.9052 H         1 UNL1        0.0000
     48 H         -45.9407  -56.9539  -15.7000 H         1 UNL1        0.0000
     49 H         -44.7900  -59.5421  -16.0328 H         1 UNL1        0.0000
     50 H         -45.2346  -59.6428  -17.4752 H         1 UNL1        0.0000
     51 H         -47.0717  -59.3718  -14.9520 H         1 UNL1        0.0000
     52 H         -47.9137  -59.4427  -16.2118 H         1 UNL1        0.0000
     53 H         -46.1500  -49.6735  -17.8198 H         1 UNL1        0.0000
     54 H         -46.2187  -49.1154  -20.1640 H         1 UNL1        0.0000
     55 H         -47.4530  -53.2776  -24.6921 H         1 UNL1        0.0000
@<TRIPOS>BOND
     1    1   18 1
     2    1   21 1
     3    1   17 am
     4    2   19 1
     5    2   20 1
     6    2   22 am
     7    3    4 1
     8    3   12 2
     9    4    5 am
    10    4   55 1
    11    5   29 2
    12    5    6 1
    13    6    7 ar
    14    6   11 ar
    15    7    8 ar
    16    7   33 1
    17    8   34 1
    18    8    9 ar
    19    9   10 ar
    20    9   35 1
    21   10   11 ar
    22   10   36 1
    23   11   12 1
    24   12   13 1
    25   13   37 1
    26   13   38 1
    27   13   14 1
    28   14   15 ar
    29   14   28 ar
    30   15   39 1
    31   15   16 ar
    32   16   26 ar
    33   16   17 1
    34   17   31 2
    35   18   19 1
    36   18   40 1
    37   18   41 1
    38   19   42 1
    39   19   43 1
    40   20   21 1
    41   20   45 1
    42   20   44 1
    43   21   46 1
    44   21   47 1
    45   22   30 2
    46   22   23 1
    47   23   25 1
    48   23   24 1
    49   23   48 1
    50   24   25 1
    51   24   49 1
    52   24   50 1
    53   25   51 1
    54   25   52 1
    55   26   27 ar
    56   26   32 1
    57   27   28 ar
    58   27   53 1
    59   28   54 1
@<TRIPOS>SUBSTRUCTURE
1 UNL1 1
@<TRIPOS>COMMENT
olaparib
PLANTSproteinTorsions
102
4661 25.9978
5386 60.1523
6210 2.1021
5890 218.5193
4461 173.5907
1390 59.0063
2824 68.6216
4339 184.1894
2732 122.0447
4792 99.8411
3407 24.3466
5134 338.4208
6916 83.6302
7370 350.9093
6038 89.5565
7225 26.2307
3592 282.1338
2064 164.2620
2488 229.8224
1253 188.0976
2069 108.8139
2569 284.6789
3058 198.7204
1748 85.7981
1162 155.5387
1509 13.3433
560 128.6313
1627 68.1389
1941 157.6332
3631 234.1587
2381 84.7507
4221 41.7663
4687 15.0967
6983 11.9467
6668 205.8355
7305 256.8159
8693 54.7687
8404 79.1064
9055 86.9227
7052 14.1192
4708 345.7113
2652 332.9916
4332 222.6730
3011 198.7298
2257 88.8876
2778 260.7507
2057 61.9818
192 345.1735
315 210.9998
1085 25.6233
1007 120.7632
1407 136.5149
4816 78.7461
3131 172.3257
4654 198.9500
5144 138.1526
117 45.9330
6 220.9958
259 302.7277
1979 129.5020
2609 151.3284
2623 259.9989
5910 267.1794
5937 36.0197
2062 151.7157
890 255.5581
5008 163.7699
8602 266.6571
8478 257.7572
8300 226.5517
7721 214.9353
8466 323.0803
7852 158.1258
5849 130.2074
6302 240.0945
7439 256.5685
6284 104.4457
6003 245.8853
7165 249.1942
7623 219.8135
8158 245.6339
8667 97.7579
9078 255.6711
8684 196.7143
7666 137.6809
4231 151.1513
1659 263.4238
489 239.6691
238 194.8150
46 51.0046
83 212.5795
254 236.6805
1066 259.0124
2112 140.0392
4047 41.6084
5402 202.4901
2544 142.9193
4670 322.0392
4426 266.4268
5656 219.5267
7040 120.6510
6282 110.4187
PLANTSmolcadARTstart hb
PLANTSmolcadARTstart HB
LINES
-47.7841 -56.5553 -17.431 -48.958 -56.853 -16.406 0 255 0 5
-47.7841 -56.5553 -17.431 -48.965 -54.951 -18.265 0 255 0 5
PLANTSmolcadARTstart HBCH
LINES
PLANTSmolcadARTstart HB-CHO
LINES
PLANTSmolcadARTend
PLANTSmolcadARTstart HB_WATER
LINES
PLANTSmolcadARTend

PLANTSmolcadARTend

