@<TRIPOS>MOLECULE
olaparib_entry_00001_conf_58
55 59 1
SMALL
NO_CHARGES


@<TRIPOS>ATOM
      1 N         -19.6698  -35.4937    2.8673 N.am      1 UNL1        0.0000
      2 N         -21.1245  -37.4914    3.6680 N.am      1 UNL1        0.0000
      3 N         -16.5938  -37.8345   -1.9431 N.2       1 UNL1        0.0000
      4 N         -17.2713  -38.0091   -3.0518 N.am      1 UNL1        0.0000
      5 C         -18.0751  -39.0605   -3.2642 C.2       1 UNL1        0.0000
      6 C         -18.2008  -40.0109   -2.2720 C.ar      1 UNL1        0.0000
      7 C         -19.0084  -41.1350   -2.4489 C.ar      1 UNL1        0.0000
      8 C         -19.1021  -42.0823   -1.4522 C.ar      1 UNL1        0.0000
      9 C         -18.3698  -41.8581   -0.3056 C.ar      1 UNL1        0.0000
     10 C         -17.5643  -40.7476   -0.1166 C.ar      1 UNL1        0.0000
     11 C         -17.4805  -39.8149   -1.1081 C.ar      1 UNL1        0.0000
     12 C         -16.6660  -38.7319   -0.9122 C.2       1 UNL1        0.0000
     13 C         -15.9163  -38.3870    0.2886 C.3       1 UNL1        0.0000
     14 C         -16.1192  -36.9540    0.6391 C.ar      1 UNL1        0.0000
     15 C         -17.4302  -36.5996    1.0039 C.ar      1 UNL1        0.0000
     16 C         -17.7192  -35.2973    1.3347 C.ar      1 UNL1        0.0000
     17 C         -19.0901  -34.8924    1.7196 C.2       1 UNL1        0.0000
     18 C         -20.9878  -35.1253    3.2726 C.3       1 UNL1        0.0000
     19 C         -21.6890  -36.2217    4.0453 C.3       1 UNL1        0.0000
     20 C         -19.7033  -37.7020    3.9643 C.3       1 UNL1        0.0000
     21 C         -18.9013  -36.4770    3.6078 C.3       1 UNL1        0.0000
     22 C         -21.8766  -38.4922    3.0458 C.2       1 UNL1        0.0000
     23 C         -23.2924  -38.4280    2.6739 C.3       1 UNL1        0.0000
     24 C         -24.2518  -38.0207    3.7692 C.3       1 UNL1        0.0000
     25 C         -24.2776  -39.3862    3.2403 C.3       1 UNL1        0.0000
     26 C         -16.7810  -34.2924    1.3317 C.ar      1 UNL1        0.0000
     27 C         -15.4981  -34.6405    0.9743 C.ar      1 UNL1        0.0000
     28 C         -15.2000  -35.9681    0.6353 C.ar      1 UNL1        0.0000
     29 O         -18.7336  -39.2446   -4.3198 O.2       1 UNL1        0.0000
     30 O         -21.2818  -39.5923    2.7607 O.2       1 UNL1        0.0000
     31 O         -19.7437  -34.0447    1.0691 O.2       1 UNL1        0.0000
     32 F         -17.1182  -33.0133    1.6677 F         1 UNL1        0.0000
     33 H         -19.5368  -41.2572   -3.3268 H         1 UNL1        0.0000
     34 H         -19.6926  -42.9208   -1.5595 H         1 UNL1        0.0000
     35 H         -18.4248  -42.5556    0.4524 H         1 UNL1        0.0000
     36 H         -17.0351  -40.6266    0.7613 H         1 UNL1        0.0000
     37 H         -14.8750  -38.5634    0.1166 H         1 UNL1        0.0000
     38 H         -16.2655  -38.9919    1.0994 H         1 UNL1        0.0000
     39 H         -18.1733  -37.3152    1.0230 H         1 UNL1        0.0000
     40 H         -21.5638  -34.8990    2.3994 H         1 UNL1        0.0000
     41 H         -20.9016  -34.2773    3.9203 H         1 UNL1        0.0000
     42 H         -22.7339  -36.2103    3.8170 H         1 UNL1        0.0000
     43 H         -21.5593  -36.0645    5.0960 H         1 UNL1        0.0000
     44 H         -19.3442  -38.5346    3.3963 H         1 UNL1        0.0000
     45 H         -19.5924  -37.8939    5.0111 H         1 UNL1        0.0000
     46 H         -18.0665  -36.7772    3.0093 H         1 UNL1        0.0000
     47 H         -18.5916  -36.0187    4.5228 H         1 UNL1        0.0000
     48 H         -23.0512  -38.1208    1.6780 H         1 UNL1        0.0000
     49 H         -25.0557  -37.3478    3.5537 H         1 UNL1        0.0000
     50 H         -24.1501  -37.5863    4.7418 H         1 UNL1        0.0000
     51 H         -25.1066  -39.7093    2.6459 H         1 UNL1        0.0000
     52 H         -24.2063  -40.3582    3.6801 H         1 UNL1        0.0000
     53 H         -14.7553  -33.9235    0.9563 H         1 UNL1        0.0000
     54 H         -14.2301  -36.2023    0.3707 H         1 UNL1        0.0000
     55 H         -17.1858  -37.3338   -3.7634 H         1 UNL1        0.0000
@<TRIPOS>BOND
     1    1   18 1
     2    1   21 1
     3    1   17 am
     4    2   19 1
     5    2   20 1
     6    2   22 am
     7    3    4 1
     8    3   12 2
     9    4    5 am
    10    4   55 1
    11    5   29 2
    12    5    6 1
    13    6    7 ar
    14    6   11 ar
    15    7    8 ar
    16    7   33 1
    17    8   34 1
    18    8    9 ar
    19    9   10 ar
    20    9   35 1
    21   10   11 ar
    22   10   36 1
    23   11   12 1
    24   12   13 1
    25   13   37 1
    26   13   38 1
    27   13   14 1
    28   14   15 ar
    29   14   28 ar
    30   15   39 1
    31   15   16 ar
    32   16   26 ar
    33   16   17 1
    34   17   31 2
    35   18   19 1
    36   18   40 1
    37   18   41 1
    38   19   42 1
    39   19   43 1
    40   20   21 1
    41   20   45 1
    42   20   44 1
    43   21   46 1
    44   21   47 1
    45   22   30 2
    46   22   23 1
    47   23   25 1
    48   23   24 1
    49   23   48 1
    50   24   25 1
    51   24   49 1
    52   24   50 1
    53   25   51 1
    54   25   52 1
    55   26   27 ar
    56   26   32 1
    57   27   28 ar
    58   27   53 1
    59   28   54 1
@<TRIPOS>SUBSTRUCTURE
1 UNL1 1
@<TRIPOS>COMMENT
olaparib
PLANTSproteinTorsions
102
4661 109.2965
5386 142.7014
6210 72.8141
5890 59.9702
4461 296.2396
1390 278.2777
2824 229.4993
4339 115.9715
2732 116.5209
4792 179.8414
3407 179.1307
5134 345.8463
6916 73.9003
7370 48.1960
6038 83.7094
7225 150.9338
3592 51.4274
2064 260.3528
2488 200.8895
1253 15.5102
2069 30.5326
2569 120.2251
3058 177.9099
1748 104.6480
1162 163.5689
1509 339.4518
560 293.8925
1627 226.1933
1941 151.6496
3631 2.1320
2381 197.2636
4221 116.2650
4687 144.1661
6983 216.4261
6668 25.5697
7305 215.5671
8693 43.5274
8404 260.5714
9055 226.9981
7052 203.8030
4708 56.4550
2652 174.1733
4332 197.1549
3011 158.4252
2257 241.8941
2778 16.0118
2057 39.8629
192 100.8511
315 252.2973
1085 221.9803
1007 126.2941
1407 98.5340
4816 63.9125
3131 148.7929
4654 281.5608
5144 198.3978
117 150.8192
6 102.1837
259 231.8877
1979 239.1455
2609 266.3048
2623 79.9375
5910 208.6119
5937 139.2428
2062 130.1869
890 174.0279
5008 304.8934
8602 95.4161
8478 32.7492
8300 105.1021
7721 184.3420
8466 314.8335
7852 268.2059
5849 92.5075
6302 152.1533
7439 245.3935
6284 263.9265
6003 10.2087
7165 196.6119
7623 211.9235
8158 123.7878
8667 262.0598
9078 69.9895
8684 86.0012
7666 177.9799
4231 179.8503
1659 38.2157
489 263.9100
238 166.2805
46 265.8809
83 129.5009
254 147.2181
1066 217.0433
2112 155.9324
4047 356.8766
5402 96.4916
2544 75.6181
4670 17.3425
4426 128.3789
5656 173.7365
7040 258.6508
6282 282.4231
PLANTSmolcadARTstart hb
PLANTSmolcadARTstart HB
LINES
PLANTSmolcadARTstart HBCH
LINES
PLANTSmolcadARTstart HB-CHO
LINES
PLANTSmolcadARTend
PLANTSmolcadARTstart HB_WATER
LINES
PLANTSmolcadARTend

PLANTSmolcadARTend

