@<TRIPOS>MOLECULE
olaparib_entry_00001_conf_04
55 59 1
SMALL
NO_CHARGES


@<TRIPOS>ATOM
      1 N          -0.2417  -70.2876    7.8066 N.am      1 UNL1        0.0000
      2 N          -0.2652  -67.9187    8.8723 N.am      1 UNL1        0.0000
      3 N          -5.6417  -73.6010   11.2971 N.2       1 UNL1        0.0000
      4 N          -6.3791  -74.5802   11.7619 N.am      1 UNL1        0.0000
      5 C          -7.4886  -75.0188   11.1508 C.2       1 UNL1        0.0000
      6 C          -7.8810  -74.4148    9.9740 C.ar      1 UNL1        0.0000
      7 C          -9.0385  -74.8189    9.3077 C.ar      1 UNL1        0.0000
      8 C          -9.4227  -74.1867    8.1448 C.ar      1 UNL1        0.0000
      9 C          -8.6182  -73.1610    7.6955 C.ar      1 UNL1        0.0000
     10 C          -7.4674  -72.7493    8.3467 C.ar      1 UNL1        0.0000
     11 C          -7.0946  -73.3832    9.4952 C.ar      1 UNL1        0.0000
     12 C          -5.9639  -72.9523   10.1358 C.2       1 UNL1        0.0000
     13 C          -5.0262  -71.9278    9.6951 C.3       1 UNL1        0.0000
     14 C          -3.8958  -72.5406    8.9442 C.ar      1 UNL1        0.0000
     15 C          -3.0036  -71.6331    8.3458 C.ar      1 UNL1        0.0000
     16 C          -1.9338  -72.1029    7.6222 C.ar      1 UNL1        0.0000
     17 C          -0.9792  -71.1731    6.9776 C.2       1 UNL1        0.0000
     18 C           0.6917  -69.3798    7.2221 C.3       1 UNL1        0.0000
     19 C           0.9051  -68.1397    8.0634 C.3       1 UNL1        0.0000
     20 C          -0.6030  -68.9575    9.8515 C.3       1 UNL1        0.0000
     21 C          -0.4563  -70.3276    9.2412 C.3       1 UNL1        0.0000
     22 C          -1.0592  -66.7749    8.7474 C.2       1 UNL1        0.0000
     23 C          -0.8623  -65.6632    7.8134 C.3       1 UNL1        0.0000
     24 C          -1.8985  -64.5630    7.8582 C.3       1 UNL1        0.0000
     25 C          -1.8027  -65.4347    6.6851 C.3       1 UNL1        0.0000
     26 C          -1.6740  -73.4409    7.4425 C.ar      1 UNL1        0.0000
     27 C          -2.5480  -74.3283    8.0287 C.ar      1 UNL1        0.0000
     28 C          -3.6411  -73.8523    8.7668 C.ar      1 UNL1        0.0000
     29 O          -8.2079  -75.9570   11.5802 O.2       1 UNL1        0.0000
     30 O          -2.0745  -66.6683    9.5240 O.2       1 UNL1        0.0000
     31 O          -0.8064  -71.1467    5.7374 O.2       1 UNL1        0.0000
     32 F          -0.5978  -73.8576    6.7139 F         1 UNL1        0.0000
     33 H          -9.6074  -75.5925    9.6855 H         1 UNL1        0.0000
     34 H         -10.2735  -74.4678    7.6344 H         1 UNL1        0.0000
     35 H          -8.8886  -72.6735    6.8275 H         1 UNL1        0.0000
     36 H          -6.8995  -71.9747    7.9688 H         1 UNL1        0.0000
     37 H          -4.6421  -71.4108   10.5496 H         1 UNL1        0.0000
     38 H          -5.5386  -71.2457    9.0489 H         1 UNL1        0.0000
     39 H          -3.1519  -70.6173    8.4494 H         1 UNL1        0.0000
     40 H           0.3253  -69.0834    6.2612 H         1 UNL1        0.0000
     41 H           1.6320  -69.8862    7.1479 H         1 UNL1        0.0000
     42 H           1.0663  -67.2962    7.4255 H         1 UNL1        0.0000
     43 H           1.7615  -68.2710    8.6918 H         1 UNL1        0.0000
     44 H          -1.6142  -68.8230   10.1738 H         1 UNL1        0.0000
     45 H           0.0638  -68.8782   10.6846 H         1 UNL1        0.0000
     46 H          -1.3481  -70.8859    9.4363 H         1 UNL1        0.0000
     47 H           0.4044  -70.7844    9.6812 H         1 UNL1        0.0000
     48 H           0.2017  -65.7519    7.8801 H         1 UNL1        0.0000
     49 H          -1.5951  -63.5389    7.7905 H         1 UNL1        0.0000
     50 H          -2.6797  -64.2859    8.5349 H         1 UNL1        0.0000
     51 H          -1.4366  -65.0407    5.7600 H         1 UNL1        0.0000
     52 H          -2.4970  -66.0512    6.1549 H         1 UNL1        0.0000
     53 H          -2.3981  -75.3446    7.9247 H         1 UNL1        0.0000
     54 H          -4.2815  -74.5391    9.1956 H         1 UNL1        0.0000
     55 H          -6.1037  -75.0153   12.6013 H         1 UNL1        0.0000
@<TRIPOS>BOND
     1    1   18 1
     2    1   21 1
     3    1   17 am
     4    2   19 1
     5    2   20 1
     6    2   22 am
     7    3    4 1
     8    3   12 2
     9    4    5 am
    10    4   55 1
    11    5   29 2
    12    5    6 1
    13    6    7 ar
    14    6   11 ar
    15    7    8 ar
    16    7   33 1
    17    8   34 1
    18    8    9 ar
    19    9   10 ar
    20    9   35 1
    21   10   11 ar
    22   10   36 1
    23   11   12 1
    24   12   13 1
    25   13   37 1
    26   13   38 1
    27   13   14 1
    28   14   15 ar
    29   14   28 ar
    30   15   39 1
    31   15   16 ar
    32   16   26 ar
    33   16   17 1
    34   17   31 2
    35   18   19 1
    36   18   40 1
    37   18   41 1
    38   19   42 1
    39   19   43 1
    40   20   21 1
    41   20   45 1
    42   20   44 1
    43   21   46 1
    44   21   47 1
    45   22   30 2
    46   22   23 1
    47   23   25 1
    48   23   24 1
    49   23   48 1
    50   24   25 1
    51   24   49 1
    52   24   50 1
    53   25   51 1
    54   25   52 1
    55   26   27 ar
    56   26   32 1
    57   27   28 ar
    58   27   53 1
    59   28   54 1
@<TRIPOS>SUBSTRUCTURE
1 UNL1 1
@<TRIPOS>COMMENT
olaparib
PLANTSproteinTorsions
102
4661 208.9107
5386 115.6096
6210 127.3528
5890 242.5980
4461 40.5038
1390 335.5392
2824 75.4041
4339 91.6469
2732 357.9619
4792 303.9693
3407 32.5484
5134 348.9055
6916 57.8132
7370 342.0340
6038 187.5444
7225 110.5180
3592 305.3251
2064 42.2630
2488 237.1647
1253 74.0545
2069 13.3787
2569 73.3297
3058 217.1951
1748 137.4428
1162 29.3652
1509 168.1664
560 175.1183
1627 123.1234
1941 34.9545
3631 162.4563
2381 190.7683
4221 60.0951
4687 213.1412
6983 100.0275
6668 117.0845
7305 140.8237
8693 192.9974
8404 26.6594
9055 252.5685
7052 71.3655
4708 124.0091
2652 183.2665
4332 345.5218
3011 150.5503
2257 229.3255
2778 108.3089
2057 205.9944
192 325.1628
315 195.6462
1085 343.5325
1007 329.5333
1407 146.9569
4816 326.4959
3131 262.7509
4654 105.9744
5144 242.1522
117 221.5021
6 77.1133
259 123.6199
1979 168.5679
2609 31.7305
2623 186.2828
5910 117.2943
5937 269.7237
2062 268.0648
890 1.7541
5008 256.3803
8602 149.8807
8478 136.3363
8300 200.9564
7721 307.4750
8466 186.3537
7852 240.6445
5849 242.7474
6302 205.0760
7439 290.2798
6284 74.8446
6003 178.6649
7165 261.2291
7623 112.7891
8158 185.4323
8667 84.4456
9078 136.3396
8684 129.0829
7666 237.3551
4231 254.9130
1659 290.2730
489 63.1637
238 246.1706
46 284.3108
83 266.4750
254 150.9362
1066 269.7075
2112 98.8732
4047 226.9439
5402 220.2839
2544 206.2633
4670 224.0212
4426 108.4005
5656 172.4481
7040 235.5111
6282 255.2677
PLANTSmolcadARTstart hb
PLANTSmolcadARTstart HB
LINES
-2.07447 -66.6683 9.524 -3.67938 -66.7969 9.09599 0 255 0 5
PLANTSmolcadARTstart HBCH
LINES
PLANTSmolcadARTstart HB-CHO
LINES
PLANTSmolcadARTend
PLANTSmolcadARTstart HB_WATER
LINES
PLANTSmolcadARTend

PLANTSmolcadARTend

