@<TRIPOS>MOLECULE
olaparib_entry_00001_conf_19
55 59 1
SMALL
NO_CHARGES


@<TRIPOS>ATOM
      1 N         -26.0508  -32.4958    2.6467 N.am      1 UNL1        0.0000
      2 N         -24.9678  -30.4298    3.7900 N.am      1 UNL1        0.0000
      3 N         -21.5020  -39.1826    3.3633 N.2       1 UNL1        0.0000
      4 N         -20.3000  -39.6254    3.0848 N.am      1 UNL1        0.0000
      5 C         -19.2553  -38.8187    2.8506 C.2       1 UNL1        0.0000
      6 C         -19.4466  -37.4533    2.9029 C.ar      1 UNL1        0.0000
      7 C         -18.3982  -36.5685    2.6476 C.ar      1 UNL1        0.0000
      8 C         -18.6175  -35.2083    2.6845 C.ar      1 UNL1        0.0000
      9 C         -19.8977  -34.7891    2.9787 C.ar      1 UNL1        0.0000
     10 C         -20.9474  -35.6557    3.2337 C.ar      1 UNL1        0.0000
     11 C         -20.7192  -36.9997    3.1972 C.ar      1 UNL1        0.0000
     12 C         -21.7717  -37.8426    3.4344 C.2       1 UNL1        0.0000
     13 C         -23.1311  -37.4842    3.8171 C.3       1 UNL1        0.0000
     14 C         -23.7598  -36.6265    2.7748 C.ar      1 UNL1        0.0000
     15 C         -24.7013  -35.6937    3.2450 C.ar      1 UNL1        0.0000
     16 C         -25.3433  -34.8639    2.3573 C.ar      1 UNL1        0.0000
     17 C         -26.3417  -33.8742    2.8209 C.2       1 UNL1        0.0000
     18 C         -26.9912  -31.5119    3.0766 C.3       1 UNL1        0.0000
     19 C         -26.3380  -30.1899    3.4183 C.3       1 UNL1        0.0000
     20 C         -24.0908  -31.0038    2.7637 C.3       1 UNL1        0.0000
     21 C         -24.7933  -32.1169    2.0297 C.3       1 UNL1        0.0000
     22 C         -24.4737  -30.1382    5.0648 C.2       1 UNL1        0.0000
     23 C         -25.2225  -29.5797    6.1937 C.3       1 UNL1        0.0000
     24 C         -25.8076  -28.2006    5.9889 C.3       1 UNL1        0.0000
     25 C         -24.7138  -28.4004    6.9421 C.3       1 UNL1        0.0000
     26 C         -25.1158  -34.8889    1.0017 C.ar      1 UNL1        0.0000
     27 C         -24.1941  -35.8024    0.5426 C.ar      1 UNL1        0.0000
     28 C         -23.5380  -36.6513    1.4454 C.ar      1 UNL1        0.0000
     29 O         -18.0953  -39.2244    2.5833 O.2       1 UNL1        0.0000
     30 O         -23.2343  -30.3788    5.2913 O.2       1 UNL1        0.0000
     31 O         -27.4220  -34.2151    3.3552 O.2       1 UNL1        0.0000
     32 F         -25.7800  -34.0439    0.1606 F         1 UNL1        0.0000
     33 H         -17.4572  -36.9328    2.4315 H         1 UNL1        0.0000
     34 H         -17.8587  -34.5349    2.4999 H         1 UNL1        0.0000
     35 H         -20.0837  -33.7749    3.0100 H         1 UNL1        0.0000
     36 H         -21.8886  -35.2906    3.4486 H         1 UNL1        0.0000
     37 H         -23.1069  -36.9508    4.7445 H         1 UNL1        0.0000
     38 H         -23.7084  -38.3795    3.9197 H         1 UNL1        0.0000
     39 H         -24.9098  -35.6327    4.2536 H         1 UNL1        0.0000
     40 H         -27.4976  -31.8788    3.9452 H         1 UNL1        0.0000
     41 H         -27.6697  -31.3379    2.2671 H         1 UNL1        0.0000
     42 H         -26.8574  -29.7328    4.2340 H         1 UNL1        0.0000
     43 H         -26.3755  -29.5373    2.5708 H         1 UNL1        0.0000
     44 H         -23.2094  -31.3917    3.2297 H         1 UNL1        0.0000
     45 H         -23.8314  -30.2385    2.0622 H         1 UNL1        0.0000
     46 H         -24.1514  -32.9730    2.0121 H         1 UNL1        0.0000
     47 H         -25.0133  -31.7632    1.0449 H         1 UNL1        0.0000
     48 H         -25.5648  -30.5491    6.4892 H         1 UNL1        0.0000
     49 H         -26.7928  -27.9792    6.3432 H         1 UNL1        0.0000
     50 H         -25.9697  -27.5649    5.1436 H         1 UNL1        0.0000
     51 H         -24.9029  -28.3156    7.9919 H         1 UNL1        0.0000
     52 H         -23.7490  -27.9589    7.0741 H         1 UNL1        0.0000
     53 H         -23.9859  -35.8620   -0.4670 H         1 UNL1        0.0000
     54 H         -22.8516  -37.3274    1.0748 H         1 UNL1        0.0000
     55 H         -20.1574  -40.5991    3.0464 H         1 UNL1        0.0000
@<TRIPOS>BOND
     1    1   18 1
     2    1   21 1
     3    1   17 am
     4    2   19 1
     5    2   20 1
     6    2   22 am
     7    3    4 1
     8    3   12 2
     9    4    5 am
    10    4   55 1
    11    5   29 2
    12    5    6 1
    13    6    7 ar
    14    6   11 ar
    15    7    8 ar
    16    7   33 1
    17    8   34 1
    18    8    9 ar
    19    9   10 ar
    20    9   35 1
    21   10   11 ar
    22   10   36 1
    23   11   12 1
    24   12   13 1
    25   13   37 1
    26   13   38 1
    27   13   14 1
    28   14   15 ar
    29   14   28 ar
    30   15   39 1
    31   15   16 ar
    32   16   26 ar
    33   16   17 1
    34   17   31 2
    35   18   19 1
    36   18   40 1
    37   18   41 1
    38   19   42 1
    39   19   43 1
    40   20   21 1
    41   20   45 1
    42   20   44 1
    43   21   46 1
    44   21   47 1
    45   22   30 2
    46   22   23 1
    47   23   25 1
    48   23   24 1
    49   23   48 1
    50   24   25 1
    51   24   49 1
    52   24   50 1
    53   25   51 1
    54   25   52 1
    55   26   27 ar
    56   26   32 1
    57   27   28 ar
    58   27   53 1
    59   28   54 1
@<TRIPOS>SUBSTRUCTURE
1 UNL1 1
@<TRIPOS>COMMENT
olaparib
PLANTSproteinTorsions
102
4661 152.1154
5386 195.2809
6210 203.3736
5890 56.5055
4461 320.2140
1390 56.7304
2824 210.0687
4339 127.1460
2732 109.2651
4792 124.3194
3407 15.4318
5134 206.6283
6916 30.0987
7370 229.1968
6038 347.2474
7225 153.2421
3592 42.5777
2064 254.9032
2488 167.6057
1253 44.9613
2069 119.2776
2569 247.5520
3058 207.8424
1748 131.1284
1162 83.3731
1509 215.5949
560 136.8745
1627 137.0971
1941 184.2992
3631 354.4567
2381 205.6844
4221 257.8659
4687 258.0465
6983 49.2254
6668 70.3833
7305 217.5371
8693 248.6733
8404 249.8137
9055 226.2805
7052 203.3286
4708 52.4314
2652 292.3430
4332 170.6475
3011 65.7313
2257 246.8103
2778 137.9268
2057 128.0088
192 79.0819
315 125.1663
1085 184.2309
1007 91.3058
1407 140.3846
4816 38.4310
3131 40.4932
4654 236.8434
5144 313.5011
117 221.2341
6 71.3061
259 73.3628
1979 245.2569
2609 243.3166
2623 116.4081
5910 222.4448
5937 139.5400
2062 66.5836
890 170.6496
5008 174.7083
8602 3.7620
8478 157.8115
8300 153.8685
7721 158.9206
8466 305.0844
7852 251.0074
5849 291.0883
6302 149.0589
7439 73.0973
6284 263.1412
6003 34.2077
7165 246.2397
7623 255.2921
8158 330.7235
8667 289.3621
9078 145.6366
8684 73.4279
7666 151.5793
4231 197.6579
1659 268.8740
489 189.7601
238 115.8074
46 227.8405
83 138.9608
254 67.0716
1066 221.1040
2112 241.0820
4047 225.0519
5402 200.9977
2544 26.9261
4670 251.5864
4426 319.6766
5656 190.3996
7040 330.0950
6282 265.0228
PLANTSmolcadARTstart hb
PLANTSmolcadARTstart HB
LINES
PLANTSmolcadARTstart HBCH
LINES
PLANTSmolcadARTstart HB-CHO
LINES
PLANTSmolcadARTend
PLANTSmolcadARTstart HB_WATER
LINES
PLANTSmolcadARTend

PLANTSmolcadARTend

