@<TRIPOS>MOLECULE
olaparib_entry_00001_conf_10
55 59 1
SMALL
NO_CHARGES


@<TRIPOS>ATOM
      1 N         -24.2702  -31.2620    4.0454 N.am      1 UNL1        0.0000
      2 N         -21.8070  -30.6006    4.5392 N.am      1 UNL1        0.0000
      3 N         -21.9167  -35.2477    2.6216 N.2       1 UNL1        0.0000
      4 N         -21.2521  -35.7024    3.6561 N.am      1 UNL1        0.0000
      5 C         -21.2595  -36.9908    4.0261 C.2       1 UNL1        0.0000
      6 C         -22.0012  -37.8892    3.2869 C.ar      1 UNL1        0.0000
      7 C         -22.0598  -39.2379    3.6399 C.ar      1 UNL1        0.0000
      8 C         -22.8244  -40.1134    2.8993 C.ar      1 UNL1        0.0000
      9 C         -23.5079  -39.5898    1.8223 C.ar      1 UNL1        0.0000
     10 C         -23.4592  -38.2538    1.4609 C.ar      1 UNL1        0.0000
     11 C         -22.6976  -37.3964    2.1988 C.ar      1 UNL1        0.0000
     12 C         -22.6745  -36.0757    1.8384 C.2       1 UNL1        0.0000
     13 C         -23.3089  -35.4569    0.6818 C.3       1 UNL1        0.0000
     14 C         -24.4732  -34.6298    1.1032 C.ar      1 UNL1        0.0000
     15 C         -24.3024  -33.9077    2.2978 C.ar      1 UNL1        0.0000
     16 C         -25.3252  -33.1231    2.7744 C.ar      1 UNL1        0.0000
     17 C         -25.1772  -32.3538    4.0304 C.2       1 UNL1        0.0000
     18 C         -24.1040  -30.4935    5.2366 C.3       1 UNL1        0.0000
     19 C         -22.7429  -29.8368    5.3226 C.3       1 UNL1        0.0000
     20 C         -22.0655  -30.6933    3.0981 C.3       1 UNL1        0.0000
     21 C         -23.5276  -30.9505    2.8383 C.3       1 UNL1        0.0000
     22 C         -20.6965  -31.2345    5.1040 C.2       1 UNL1        0.0000
     23 C         -20.3135  -31.2467    6.5183 C.3       1 UNL1        0.0000
     24 C         -19.6314  -30.0002    7.0352 C.3       1 UNL1        0.0000
     25 C         -18.8837  -31.2548    6.9249 C.3       1 UNL1        0.0000
     26 C         -26.5375  -32.9962    2.1386 C.ar      1 UNL1        0.0000
     27 C         -26.7036  -33.7036    0.9695 C.ar      1 UNL1        0.0000
     28 C         -25.6624  -34.5058    0.4809 C.ar      1 UNL1        0.0000
     29 O         -20.6279  -37.4459    5.0139 O.2       1 UNL1        0.0000
     30 O         -19.9169  -31.8811    4.3169 O.2       1 UNL1        0.0000
     31 O         -25.8221  -32.6359    5.0664 O.2       1 UNL1        0.0000
     32 F         -27.5229  -32.2043    2.6530 F         1 UNL1        0.0000
     33 H         -21.5295  -39.5808    4.4561 H         1 UNL1        0.0000
     34 H         -22.8830  -41.1143    3.1402 H         1 UNL1        0.0000
     35 H         -24.0873  -40.2279    1.2554 H         1 UNL1        0.0000
     36 H         -23.9909  -37.9115    0.6451 H         1 UNL1        0.0000
     37 H         -23.6440  -36.2217    0.0126 H         1 UNL1        0.0000
     38 H         -22.5964  -34.8243    0.1944 H         1 UNL1        0.0000
     39 H         -23.4117  -33.9669    2.8152 H         1 UNL1        0.0000
     40 H         -24.2269  -31.1397    6.0809 H         1 UNL1        0.0000
     41 H         -24.8386  -29.7149    5.2241 H         1 UNL1        0.0000
     42 H         -22.4209  -29.8098    6.3423 H         1 UNL1        0.0000
     43 H         -22.7990  -28.8360    4.9474 H         1 UNL1        0.0000
     44 H         -21.4893  -31.4956    2.6873 H         1 UNL1        0.0000
     45 H         -21.7912  -29.7676    2.6368 H         1 UNL1        0.0000
     46 H         -23.6146  -31.7760    2.1628 H         1 UNL1        0.0000
     47 H         -23.9432  -30.0546    2.4287 H         1 UNL1        0.0000
     48 H         -21.1568  -31.8524    6.7758 H         1 UNL1        0.0000
     49 H         -19.8858  -29.6116    7.9994 H         1 UNL1        0.0000
     50 H         -19.4977  -29.0035    6.6697 H         1 UNL1        0.0000
     51 H         -18.5865  -31.7750    7.8115 H         1 UNL1        0.0000
     52 H         -17.9722  -31.5404    6.4445 H         1 UNL1        0.0000
     53 H         -27.5953  -33.6429    0.4523 H         1 UNL1        0.0000
     54 H         -25.8133  -35.0261   -0.3978 H         1 UNL1        0.0000
     55 H         -20.7207  -35.0658    4.1873 H         1 UNL1        0.0000
@<TRIPOS>BOND
     1    1   18 1
     2    1   21 1
     3    1   17 am
     4    2   19 1
     5    2   20 1
     6    2   22 am
     7    3    4 1
     8    3   12 2
     9    4    5 am
    10    4   55 1
    11    5   29 2
    12    5    6 1
    13    6    7 ar
    14    6   11 ar
    15    7    8 ar
    16    7   33 1
    17    8   34 1
    18    8    9 ar
    19    9   10 ar
    20    9   35 1
    21   10   11 ar
    22   10   36 1
    23   11   12 1
    24   12   13 1
    25   13   37 1
    26   13   38 1
    27   13   14 1
    28   14   15 ar
    29   14   28 ar
    30   15   39 1
    31   15   16 ar
    32   16   26 ar
    33   16   17 1
    34   17   31 2
    35   18   19 1
    36   18   40 1
    37   18   41 1
    38   19   42 1
    39   19   43 1
    40   20   21 1
    41   20   45 1
    42   20   44 1
    43   21   46 1
    44   21   47 1
    45   22   30 2
    46   22   23 1
    47   23   25 1
    48   23   24 1
    49   23   48 1
    50   24   25 1
    51   24   49 1
    52   24   50 1
    53   25   51 1
    54   25   52 1
    55   26   27 ar
    56   26   32 1
    57   27   28 ar
    58   27   53 1
    59   28   54 1
@<TRIPOS>SUBSTRUCTURE
1 UNL1 1
@<TRIPOS>COMMENT
olaparib
PLANTSproteinTorsions
102
4661 264.7908
5386 155.5378
6210 45.0260
5890 13.8918
4461 21.3397
1390 80.3758
2824 48.7803
4339 127.7723
2732 341.0452
4792 92.4276
3407 95.9171
5134 165.2256
6916 49.2928
7370 1.9582
6038 128.0971
7225 350.7591
3592 249.0839
2064 258.2830
2488 207.1470
1253 60.9343
2069 105.6854
2569 313.0287
3058 144.8826
1748 126.4402
1162 234.7966
1509 217.6445
560 240.5266
1627 108.3360
1941 169.2270
3631 345.1041
2381 94.7323
4221 183.2759
4687 234.7966
6983 242.7342
6668 71.2568
7305 237.9251
8693 58.5476
8404 253.4842
9055 269.9894
7052 206.5408
4708 70.0741
2652 200.3833
4332 173.7283
3011 124.5222
2257 188.6164
2778 25.7369
2057 131.2793
192 70.8382
315 228.3007
1085 56.1022
1007 234.6133
1407 143.0713
4816 70.7693
3131 330.4814
4654 217.9536
5144 197.2250
117 57.2684
6 64.0029
259 178.1373
1979 105.9161
2609 338.9436
2623 113.7576
5910 261.7108
5937 203.1548
2062 40.2482
890 185.9997
5008 206.4744
8602 146.2449
8478 240.5663
8300 113.9118
7721 143.9375
8466 92.9451
7852 250.3203
5849 275.7569
6302 41.7818
7439 112.5438
6284 270.2588
6003 44.9074
7165 230.2148
7623 232.6332
8158 294.1396
8667 227.3538
9078 138.2388
8684 90.5428
7666 115.1284
4231 257.9079
1659 236.9276
489 20.9745
238 75.4779
46 202.4314
83 99.2763
254 228.9685
1066 195.1442
2112 147.9512
4047 195.1593
5402 184.4139
2544 228.8520
4670 44.1447
4426 21.0469
5656 186.2531
7040 261.1111
6282 294.0231
PLANTSmolcadARTstart hb
PLANTSmolcadARTstart HB
LINES
-20.6279 -37.4459 5.01387 -21.8142 -36.8526 6.48543 0 255 0 5
PLANTSmolcadARTstart HBCH
LINES
PLANTSmolcadARTstart HB-CHO
LINES
PLANTSmolcadARTend
PLANTSmolcadARTstart HB_WATER
LINES
PLANTSmolcadARTend

PLANTSmolcadARTend

