@<TRIPOS>MOLECULE
olaparib_entry_00001_conf_09
55 59 1
SMALL
NO_CHARGES


@<TRIPOS>ATOM
      1 N         -17.8965  -41.9868   -2.2107 N.am      1 UNL1        0.0000
      2 N         -17.5136  -39.4447   -1.8371 N.am      1 UNL1        0.0000
      3 N         -13.7301  -45.4832   -2.8013 N.2       1 UNL1        0.0000
      4 N         -13.0378  -44.7550   -3.6432 N.am      1 UNL1        0.0000
      5 C         -12.4835  -43.5794   -3.3152 C.2       1 UNL1        0.0000
      6 C         -12.6455  -43.1051   -2.0297 C.ar      1 UNL1        0.0000
      7 C         -12.1066  -41.8781   -1.6410 C.ar      1 UNL1        0.0000
      8 C         -12.2992  -41.4142   -0.3576 C.ar      1 UNL1        0.0000
      9 C         -13.0360  -42.2124    0.4918 C.ar      1 UNL1        0.0000
     10 C         -13.5769  -43.4317    0.1195 C.ar      1 UNL1        0.0000
     11 C         -13.3782  -43.8828   -1.1521 C.ar      1 UNL1        0.0000
     12 C         -13.9345  -45.0818   -1.5089 C.2       1 UNL1        0.0000
     13 C         -14.6643  -46.0132   -0.6586 C.3       1 UNL1        0.0000
     14 C         -15.9216  -45.3913   -0.1589 C.ar      1 UNL1        0.0000
     15 C         -16.6179  -44.6005   -1.0903 C.ar      1 UNL1        0.0000
     16 C         -17.7847  -43.9760   -0.7197 C.ar      1 UNL1        0.0000
     17 C         -18.5385  -43.1344   -1.6762 C.2       1 UNL1        0.0000
     18 C         -18.5895  -41.1536   -3.1394 C.3       1 UNL1        0.0000
     19 C         -18.0917  -39.7242   -3.1258 C.3       1 UNL1        0.0000
     20 C         -16.3386  -40.2330   -1.4499 C.3       1 UNL1        0.0000
     21 C         -16.5387  -41.6860   -1.7964 C.3       1 UNL1        0.0000
     22 C         -18.0317  -38.4722   -0.9768 C.2       1 UNL1        0.0000
     23 C         -19.1995  -37.6191   -1.2125 C.3       1 UNL1        0.0000
     24 C         -18.9468  -36.3388   -1.9762 C.3       1 UNL1        0.0000
     25 C         -19.3203  -36.2885   -0.5609 C.3       1 UNL1        0.0000
     26 C         -18.3287  -44.0793    0.5385 C.ar      1 UNL1        0.0000
     27 C         -17.6463  -44.8536    1.4495 C.ar      1 UNL1        0.0000
     28 C         -16.4550  -45.4914    1.0750 C.ar      1 UNL1        0.0000
     29 O         -11.8152  -42.8676   -4.1080 O.2       1 UNL1        0.0000
     30 O         -17.4359  -38.2924    0.1448 O.2       1 UNL1        0.0000
     31 O         -19.7117  -43.4038   -2.0224 O.2       1 UNL1        0.0000
     32 F         -19.4906  -43.4385    0.8581 F         1 UNL1        0.0000
     33 H         -11.5624  -41.3173   -2.3151 H         1 UNL1        0.0000
     34 H         -11.9105  -40.5111   -0.0470 H         1 UNL1        0.0000
     35 H         -13.1932  -41.8830    1.4566 H         1 UNL1        0.0000
     36 H         -14.1220  -43.9915    0.7939 H         1 UNL1        0.0000
     37 H         -14.0503  -46.2847    0.1747 H         1 UNL1        0.0000
     38 H         -14.9147  -46.8812   -1.2325 H         1 UNL1        0.0000
     39 H         -16.2536  -44.4893   -2.0492 H         1 UNL1        0.0000
     40 H         -19.6306  -41.1564   -2.8914 H         1 UNL1        0.0000
     41 H         -18.4153  -41.5475   -4.1195 H         1 UNL1        0.0000
     42 H         -18.9086  -39.0575   -3.3060 H         1 UNL1        0.0000
     43 H         -17.3556  -39.5894   -3.8910 H         1 UNL1        0.0000
     44 H         -16.1843  -40.1414   -0.3953 H         1 UNL1        0.0000
     45 H         -15.4852  -39.8664   -1.9812 H         1 UNL1        0.0000
     46 H         -16.3068  -42.2776   -0.9354 H         1 UNL1        0.0000
     47 H         -15.8952  -41.9110   -2.6201 H         1 UNL1        0.0000
     48 H         -19.8471  -38.4677   -1.2819 H         1 UNL1        0.0000
     49 H         -19.6404  -36.0163   -2.7247 H         1 UNL1        0.0000
     50 H         -18.1379  -35.9531   -2.5608 H         1 UNL1        0.0000
     51 H         -20.2849  -35.9204   -0.2796 H         1 UNL1        0.0000
     52 H         -18.8891  -35.8410    0.3092 H         1 UNL1        0.0000
     53 H         -18.0122  -44.9645    2.4086 H         1 UNL1        0.0000
     54 H         -15.9628  -46.0658    1.7774 H         1 UNL1        0.0000
     55 H         -12.9185  -45.0887   -4.5621 H         1 UNL1        0.0000
@<TRIPOS>BOND
     1    1   18 1
     2    1   21 1
     3    1   17 am
     4    2   19 1
     5    2   20 1
     6    2   22 am
     7    3    4 1
     8    3   12 2
     9    4    5 am
    10    4   55 1
    11    5   29 2
    12    5    6 1
    13    6    7 ar
    14    6   11 ar
    15    7    8 ar
    16    7   33 1
    17    8   34 1
    18    8    9 ar
    19    9   10 ar
    20    9   35 1
    21   10   11 ar
    22   10   36 1
    23   11   12 1
    24   12   13 1
    25   13   37 1
    26   13   38 1
    27   13   14 1
    28   14   15 ar
    29   14   28 ar
    30   15   39 1
    31   15   16 ar
    32   16   26 ar
    33   16   17 1
    34   17   31 2
    35   18   19 1
    36   18   40 1
    37   18   41 1
    38   19   42 1
    39   19   43 1
    40   20   21 1
    41   20   45 1
    42   20   44 1
    43   21   46 1
    44   21   47 1
    45   22   30 2
    46   22   23 1
    47   23   25 1
    48   23   24 1
    49   23   48 1
    50   24   25 1
    51   24   49 1
    52   24   50 1
    53   25   51 1
    54   25   52 1
    55   26   27 ar
    56   26   32 1
    57   27   28 ar
    58   27   53 1
    59   28   54 1
@<TRIPOS>SUBSTRUCTURE
1 UNL1 1
@<TRIPOS>COMMENT
olaparib
PLANTSproteinTorsions
102
4661 130.6523
5386 207.7529
6210 66.7170
5890 2.7296
4461 7.0994
1390 3.2593
2824 118.5304
4339 215.0806
2732 74.8093
4792 91.5662
3407 356.8429
5134 31.1026
6916 74.3967
7370 29.5818
6038 229.2408
7225 288.6951
3592 151.1347
2064 117.2348
2488 343.5917
1253 34.1952
2069 68.0546
2569 59.2960
3058 65.7549
1748 164.9755
1162 239.7160
1509 219.0426
560 229.6671
1627 43.5349
1941 208.7591
3631 212.7700
2381 41.6878
4221 175.1611
4687 268.8685
6983 161.5597
6668 335.5558
7305 63.3653
8693 50.1397
8404 41.4386
9055 315.5176
7052 349.5750
4708 71.1377
2652 42.4784
4332 134.9081
3011 341.6612
2257 210.4641
2778 27.8202
2057 255.9093
192 51.3336
315 163.9276
1085 184.3683
1007 48.2499
1407 202.8974
4816 231.6919
3131 204.0324
4654 277.2158
5144 56.8336
117 234.7843
6 225.8795
259 72.6438
1979 244.1931
2609 115.3117
2623 131.5676
5910 232.9543
5937 293.1400
2062 274.3862
890 257.9973
5008 156.6923
8602 155.4217
8478 92.4799
8300 31.7410
7721 37.2557
8466 69.0605
7852 133.6410
5849 108.6055
6302 26.7745
7439 79.9606
6284 236.9601
6003 324.0832
7165 260.0280
7623 286.9623
8158 255.6476
8667 7.7848
9078 267.6861
8684 38.4244
7666 7.7826
4231 261.4094
1659 95.1172
489 140.4247
238 157.1307
46 173.3905
83 123.0782
254 221.2485
1066 272.0410
2112 212.9563
4047 184.8968
5402 232.5395
2544 78.5324
4670 127.0910
4426 207.7694
5656 52.4747
7040 179.3800
6282 211.7711
PLANTSmolcadARTstart hb
PLANTSmolcadARTstart HB
LINES
-11.8152 -42.8676 -4.10795 -12.228 -40.893 -4.598 0 255 0 5
PLANTSmolcadARTstart HBCH
LINES
PLANTSmolcadARTstart HB-CHO
LINES
PLANTSmolcadARTend
PLANTSmolcadARTstart HB_WATER
LINES
PLANTSmolcadARTend

PLANTSmolcadARTend

