@<TRIPOS>MOLECULE
olaparib_entry_00001_conf_60
55 59 1
SMALL
NO_CHARGES


@<TRIPOS>ATOM
      1 N         -21.3064  -57.3209  -16.9344 N.am      1 UNL1        0.0000
      2 N         -22.5515  -55.6605  -18.4968 N.am      1 UNL1        0.0000
      3 N         -15.5617  -56.9883  -12.9531 N.2       1 UNL1        0.0000
      4 N         -14.7366  -56.8760  -11.9406 N.am      1 UNL1        0.0000
      5 C         -13.6162  -56.1412  -11.9834 C.2       1 UNL1        0.0000
      6 C         -13.3089  -55.4671  -13.1473 C.ar      1 UNL1        0.0000
      7 C         -12.1451  -54.7044  -13.2524 C.ar      1 UNL1        0.0000
      8 C         -11.8476  -54.0568  -14.4321 C.ar      1 UNL1        0.0000
      9 C         -12.7427  -54.2060  -15.4703 C.ar      1 UNL1        0.0000
     10 C         -13.9009  -54.9599  -15.3801 C.ar      1 UNL1        0.0000
     11 C         -14.1873  -55.5945  -14.2075 C.ar      1 UNL1        0.0000
     12 C         -15.3272  -56.3499  -14.1408 C.2       1 UNL1        0.0000
     13 C         -16.3547  -56.5039  -15.1624 C.3       1 UNL1        0.0000
     14 C         -17.7121  -56.4456  -14.5529 C.ar      1 UNL1        0.0000
     15 C         -18.7355  -57.0633  -15.2936 C.ar      1 UNL1        0.0000
     16 C         -20.0250  -57.0529  -14.8181 C.ar      1 UNL1        0.0000
     17 C         -21.1245  -57.6914  -15.5762 C.2       1 UNL1        0.0000
     18 C         -22.3528  -57.9184  -17.6992 C.3       1 UNL1        0.0000
     19 C         -22.8264  -57.0334  -18.8322 C.3       1 UNL1        0.0000
     20 C         -21.1437  -55.2878  -18.3206 C.3       1 UNL1        0.0000
     21 C         -20.4156  -56.3350  -17.5177 C.3       1 UNL1        0.0000
     22 C         -23.5634  -54.7088  -18.3399 C.2       1 UNL1        0.0000
     23 C         -25.0066  -54.9277  -18.4681 C.3       1 UNL1        0.0000
     24 C         -25.6211  -54.5609  -19.8000 C.3       1 UNL1        0.0000
     25 C         -25.9462  -53.7836  -18.6020 C.3       1 UNL1        0.0000
     26 C         -20.3864  -56.4611  -13.6311 C.ar      1 UNL1        0.0000
     27 C         -19.3838  -55.8567  -12.9069 C.ar      1 UNL1        0.0000
     28 C         -18.0672  -55.8645  -13.3896 C.ar      1 UNL1        0.0000
     29 O         -12.8135  -56.0202  -11.0228 O.2       1 UNL1        0.0000
     30 O         -23.2119  -53.5093  -18.0520 O.2       1 UNL1        0.0000
     31 O         -21.8885  -58.5385  -15.0591 O.2       1 UNL1        0.0000
     32 F         -21.6819  -56.4771  -13.2021 F         1 UNL1        0.0000
     33 H         -11.5065  -54.6243  -12.4458 H         1 UNL1        0.0000
     34 H         -10.9941  -53.4871  -14.5338 H         1 UNL1        0.0000
     35 H         -12.5383  -53.7305  -16.3626 H         1 UNL1        0.0000
     36 H         -14.5386  -55.0404  -16.1877 H         1 UNL1        0.0000
     37 H         -16.2279  -57.4479  -15.6500 H         1 UNL1        0.0000
     38 H         -16.2609  -55.7061  -15.8695 H         1 UNL1        0.0000
     39 H         -18.5191  -57.5227  -16.1917 H         1 UNL1        0.0000
     40 H         -23.1805  -58.1172  -17.0505 H         1 UNL1        0.0000
     41 H         -21.9643  -58.8174  -18.1316 H         1 UNL1        0.0000
     42 H         -23.8783  -57.1652  -18.9754 H         1 UNL1        0.0000
     43 H         -22.3155  -57.2960  -19.7352 H         1 UNL1        0.0000
     44 H         -21.0884  -54.3506  -17.8076 H         1 UNL1        0.0000
     45 H         -20.6829  -55.2097  -19.2832 H         1 UNL1        0.0000
     46 H         -19.8813  -55.8496  -16.7277 H         1 UNL1        0.0000
     47 H         -19.7588  -56.8516  -18.1847 H         1 UNL1        0.0000
     48 H         -24.9685  -55.7789  -17.8212 H         1 UNL1        0.0000
     49 H         -26.3594  -55.1971  -20.2421 H         1 UNL1        0.0000
     50 H         -25.2386  -54.3305  -20.7724 H         1 UNL1        0.0000
     51 H         -26.9261  -53.8486  -18.1772 H         1 UNL1        0.0000
     52 H         -25.8995  -52.7454  -18.3507 H         1 UNL1        0.0000
     53 H         -19.6017  -55.3978  -12.0080 H         1 UNL1        0.0000
     54 H         -17.3344  -55.4039  -12.8272 H         1 UNL1        0.0000
     55 H         -14.9510  -57.3547  -11.1071 H         1 UNL1        0.0000
@<TRIPOS>BOND
     1    1   18 1
     2    1   21 1
     3    1   17 am
     4    2   19 1
     5    2   20 1
     6    2   22 am
     7    3    4 1
     8    3   12 2
     9    4    5 am
    10    4   55 1
    11    5   29 2
    12    5    6 1
    13    6    7 ar
    14    6   11 ar
    15    7    8 ar
    16    7   33 1
    17    8   34 1
    18    8    9 ar
    19    9   10 ar
    20    9   35 1
    21   10   11 ar
    22   10   36 1
    23   11   12 1
    24   12   13 1
    25   13   37 1
    26   13   38 1
    27   13   14 1
    28   14   15 ar
    29   14   28 ar
    30   15   39 1
    31   15   16 ar
    32   16   26 ar
    33   16   17 1
    34   17   31 2
    35   18   19 1
    36   18   40 1
    37   18   41 1
    38   19   42 1
    39   19   43 1
    40   20   21 1
    41   20   45 1
    42   20   44 1
    43   21   46 1
    44   21   47 1
    45   22   30 2
    46   22   23 1
    47   23   25 1
    48   23   24 1
    49   23   48 1
    50   24   25 1
    51   24   49 1
    52   24   50 1
    53   25   51 1
    54   25   52 1
    55   26   27 ar
    56   26   32 1
    57   27   28 ar
    58   27   53 1
    59   28   54 1
@<TRIPOS>SUBSTRUCTURE
1 UNL1 1
@<TRIPOS>COMMENT
olaparib
PLANTSproteinTorsions
102
4661 14.9181
5386 122.2489
6210 4.3827
5890 6.3376
4461 46.6969
1390 32.5631
2824 85.2039
4339 160.3046
2732 19.5299
4792 41.3586
3407 310.8007
5134 149.6330
6916 201.5007
7370 252.2183
6038 146.9084
7225 112.3626
3592 52.3948
2064 342.0472
2488 112.8878
1253 67.3145
2069 246.8359
2569 5.7135
3058 245.4695
1748 174.7762
1162 25.6784
1509 97.0490
560 98.6287
1627 167.4706
1941 312.0487
3631 169.8880
2381 232.9040
4221 13.6740
4687 235.6076
6983 92.6309
6668 26.5248
7305 357.5669
8693 166.9570
8404 1.3050
9055 34.7328
7052 56.2637
4708 69.4572
2652 244.3074
4332 190.6172
3011 160.5752
2257 183.5819
2778 35.7123
2057 292.9464
192 274.1427
315 74.9239
1085 355.1729
1007 7.6563
1407 227.0902
4816 2.7810
3131 173.8250
4654 31.9471
5144 17.7123
117 254.8712
6 59.2593
259 43.8117
1979 127.3984
2609 301.9629
2623 198.8927
5910 72.8923
5937 143.6017
2062 62.4024
890 101.1447
5008 149.8194
8602 140.7870
8478 76.9274
8300 264.9377
7721 311.1276
8466 264.2779
7852 237.6206
5849 83.2652
6302 177.3447
7439 56.1378
6284 89.2368
6003 151.1114
7165 281.4476
7623 99.3319
8158 250.2643
8667 66.9661
9078 37.2257
8684 283.1983
7666 201.6699
4231 79.1136
1659 280.0026
489 281.4477
238 268.3557
46 11.7620
83 185.6982
254 172.7617
1066 250.1953
2112 76.0340
4047 291.5313
5402 57.9992
2544 61.9928
4670 144.0946
4426 280.4419
5656 157.4325
7040 209.0958
6282 33.7020
PLANTSmolcadARTstart hb
PLANTSmolcadARTstart HB
LINES
PLANTSmolcadARTstart HBCH
LINES
PLANTSmolcadARTstart HB-CHO
LINES
PLANTSmolcadARTend
PLANTSmolcadARTstart HB_WATER
LINES
PLANTSmolcadARTend

PLANTSmolcadARTend

