@<TRIPOS>MOLECULE
olaparib_entry_00001_conf_97
55 59 1
SMALL
NO_CHARGES


@<TRIPOS>ATOM
      1 N         -23.5341  -31.8352    3.2375 N.am      1 UNL1        0.0000
      2 N         -21.3245  -30.6616    3.9367 N.am      1 UNL1        0.0000
      3 N         -20.5234  -35.5237   -1.1872 N.2       1 UNL1        0.0000
      4 N         -19.7149  -34.8578   -1.9756 N.am      1 UNL1        0.0000
      5 C         -18.7576  -34.0363   -1.5224 C.2       1 UNL1        0.0000
      6 C         -18.6095  -33.8779   -0.1598 C.ar      1 UNL1        0.0000
      7 C         -17.6423  -33.0199    0.3650 C.ar      1 UNL1        0.0000
      8 C         -17.5267  -32.8609    1.7292 C.ar      1 UNL1        0.0000
      9 C         -18.4000  -33.5789    2.5186 C.ar      1 UNL1        0.0000
     10 C         -19.3646  -34.4334    2.0115 C.ar      1 UNL1        0.0000
     11 C         -19.4690  -34.5855    0.6603 C.ar      1 UNL1        0.0000
     12 C         -20.4394  -35.4205    0.1750 C.2       1 UNL1        0.0000
     13 C         -21.3520  -36.2630    0.9368 C.3       1 UNL1        0.0000
     14 C         -22.6957  -35.6281    1.0308 C.ar      1 UNL1        0.0000
     15 C         -22.8491  -34.6852    2.0627 C.ar      1 UNL1        0.0000
     16 C         -24.0568  -34.0527    2.2366 C.ar      1 UNL1        0.0000
     17 C         -24.2506  -33.0581    3.3158 C.2       1 UNL1        0.0000
     18 C         -23.6985  -30.8496    4.2567 C.3       1 UNL1        0.0000
     19 C         -22.4880  -29.9528    4.4024 C.3       1 UNL1        0.0000
     20 C         -21.3065  -31.0547    2.5235 C.3       1 UNL1        0.0000
     21 C         -22.6441  -31.6145    2.1128 C.3       1 UNL1        0.0000
     22 C         -20.2497  -30.9731    4.7746 C.2       1 UNL1        0.0000
     23 C         -20.1263  -30.6635    6.2015 C.3       1 UNL1        0.0000
     24 C         -19.6354  -29.2747    6.5425 C.3       1 UNL1        0.0000
     25 C         -18.7953  -30.4408    6.8248 C.3       1 UNL1        0.0000
     26 C         -25.1537  -34.2901    1.4427 C.ar      1 UNL1        0.0000
     27 C         -25.0024  -35.2133    0.4329 C.ar      1 UNL1        0.0000
     28 C         -23.7719  -35.8613    0.2533 C.ar      1 UNL1        0.0000
     29 O         -17.9720  -33.3905   -2.2624 O.2       1 UNL1        0.0000
     30 O         -19.2552  -31.5975    4.2586 O.2       1 UNL1        0.0000
     31 O         -25.0195  -33.2631    4.2830 O.2       1 UNL1        0.0000
     32 F         -26.3325  -33.6362    1.6564 F         1 UNL1        0.0000
     33 H         -17.0122  -32.5040   -0.2688 H         1 UNL1        0.0000
     34 H         -16.8196  -32.2332    2.1406 H         1 UNL1        0.0000
     35 H         -18.3312  -33.4733    3.5425 H         1 UNL1        0.0000
     36 H         -19.9953  -34.9481    2.6461 H         1 UNL1        0.0000
     37 H         -20.9602  -36.4056    1.9223 H         1 UNL1        0.0000
     38 H         -21.4509  -37.2045    0.4376 H         1 UNL1        0.0000
     39 H         -22.0573  -34.4691    2.6879 H         1 UNL1        0.0000
     40 H         -23.8713  -31.3464    5.1888 H         1 UNL1        0.0000
     41 H         -24.5272  -30.2318    3.9782 H         1 UNL1        0.0000
     42 H         -22.3596  -29.6866    5.4305 H         1 UNL1        0.0000
     43 H         -22.6254  -29.0617    3.8256 H         1 UNL1        0.0000
     44 H         -20.5532  -31.7996    2.3741 H         1 UNL1        0.0000
     45 H         -21.0961  -30.1919    1.9266 H         1 UNL1        0.0000
     46 H         -22.4856  -32.5490    1.6160 H         1 UNL1        0.0000
     47 H         -23.1096  -30.8961    1.4721 H         1 UNL1        0.0000
     48 H         -20.9582  -31.2910    6.4436 H         1 UNL1        0.0000
     49 H         -20.0845  -28.7310    7.3475 H         1 UNL1        0.0000
     50 H         -19.5075  -28.3621    5.9987 H         1 UNL1        0.0000
     51 H         -18.6265  -30.7402    7.8381 H         1 UNL1        0.0000
     52 H         -17.7950  -30.7191    6.5695 H         1 UNL1        0.0000
     53 H         -25.7955  -35.4282   -0.1924 H         1 UNL1        0.0000
     54 H         -23.6854  -36.5494   -0.5112 H         1 UNL1        0.0000
     55 H         -19.8157  -34.9672   -2.9491 H         1 UNL1        0.0000
@<TRIPOS>BOND
     1    1   18 1
     2    1   21 1
     3    1   17 am
     4    2   19 1
     5    2   20 1
     6    2   22 am
     7    3    4 1
     8    3   12 2
     9    4    5 am
    10    4   55 1
    11    5   29 2
    12    5    6 1
    13    6    7 ar
    14    6   11 ar
    15    7    8 ar
    16    7   33 1
    17    8   34 1
    18    8    9 ar
    19    9   10 ar
    20    9   35 1
    21   10   11 ar
    22   10   36 1
    23   11   12 1
    24   12   13 1
    25   13   37 1
    26   13   38 1
    27   13   14 1
    28   14   15 ar
    29   14   28 ar
    30   15   39 1
    31   15   16 ar
    32   16   26 ar
    33   16   17 1
    34   17   31 2
    35   18   19 1
    36   18   40 1
    37   18   41 1
    38   19   42 1
    39   19   43 1
    40   20   21 1
    41   20   45 1
    42   20   44 1
    43   21   46 1
    44   21   47 1
    45   22   30 2
    46   22   23 1
    47   23   25 1
    48   23   24 1
    49   23   48 1
    50   24   25 1
    51   24   49 1
    52   24   50 1
    53   25   51 1
    54   25   52 1
    55   26   27 ar
    56   26   32 1
    57   27   28 ar
    58   27   53 1
    59   28   54 1
@<TRIPOS>SUBSTRUCTURE
1 UNL1 1
@<TRIPOS>COMMENT
olaparib
PLANTSproteinTorsions
102
4661 131.0084
5386 63.1748
6210 7.2062
5890 190.7948
4461 5.1341
1390 116.7729
2824 48.2543
4339 130.0208
2732 8.3584
4792 68.8533
3407 218.9972
5134 96.2358
6916 45.9943
7370 28.0238
6038 43.0326
7225 352.0281
3592 270.5646
2064 151.6205
2488 205.7594
1253 62.2043
2069 13.3602
2569 327.1265
3058 143.3568
1748 46.9611
1162 167.2875
1509 260.2237
560 237.9030
1627 70.5303
1941 108.0387
3631 5.1243
2381 167.3472
4221 8.7724
4687 251.2249
6983 241.4391
6668 100.8166
7305 241.4035
8693 57.5695
8404 249.4669
9055 276.8146
7052 196.3728
4708 82.3818
2652 114.0778
4332 207.8158
3011 121.7892
2257 176.3769
2778 105.7285
2057 130.1835
192 146.3640
315 259.8451
1085 48.6694
1007 219.6396
1407 100.1186
4816 71.3181
3131 91.8676
4654 59.5743
5144 204.0970
117 61.8074
6 47.9682
259 72.7737
1979 253.9749
2609 268.2006
2623 86.0985
5910 223.2920
5937 66.9800
2062 91.8055
890 175.1854
5008 213.2958
8602 121.7387
8478 244.4527
8300 152.7879
7721 149.7442
8466 348.4496
7852 169.3285
5849 245.0311
6302 48.0523
7439 289.7645
6284 261.9327
6003 298.8978
7165 231.0348
7623 228.4585
8158 279.2021
8667 65.8622
9078 137.9368
8684 92.6337
7666 135.1723
4231 261.4354
1659 225.4033
489 28.1517
238 124.9156
46 218.5102
83 82.3935
254 256.4606
1066 195.5297
2112 206.1937
4047 124.8439
5402 176.5315
2544 49.2251
4670 40.8257
4426 47.2400
5656 259.3752
7040 200.8184
6282 280.8964
PLANTSmolcadARTstart hb
PLANTSmolcadARTstart HB
LINES
PLANTSmolcadARTstart HBCH
LINES
PLANTSmolcadARTstart HB-CHO
LINES
PLANTSmolcadARTend
PLANTSmolcadARTstart HB_WATER
LINES
PLANTSmolcadARTend

PLANTSmolcadARTend

