@<TRIPOS>MOLECULE
olaparib_entry_00001_conf_55
55 59 1
SMALL
NO_CHARGES


@<TRIPOS>ATOM
      1 N         -44.1069  -54.6038  -18.8290 N.am      1 UNL1        0.0000
      2 N         -45.7244  -56.6130  -18.5207 N.am      1 UNL1        0.0000
      3 N         -44.7252  -47.9089  -21.6003 N.2       1 UNL1        0.0000
      4 N         -44.1819  -46.7271  -21.7647 N.am      1 UNL1        0.0000
      5 C         -43.0521  -46.5275  -22.4579 C.2       1 UNL1        0.0000
      6 C         -42.4235  -47.6145  -23.0295 C.ar      1 UNL1        0.0000
      7 C         -41.2344  -47.4656  -23.7444 C.ar      1 UNL1        0.0000
      8 C         -40.6126  -48.5686  -24.2887 C.ar      1 UNL1        0.0000
      9 C         -41.2187  -49.7907  -24.0878 C.ar      1 UNL1        0.0000
     10 C         -42.3981  -49.9532  -23.3804 C.ar      1 UNL1        0.0000
     11 C         -43.0067  -48.8550  -22.8481 C.ar      1 UNL1        0.0000
     12 C         -44.1626  -49.0353  -22.1368 C.2       1 UNL1        0.0000
     13 C         -44.9010  -50.2754  -21.9368 C.3       1 UNL1        0.0000
     14 C         -45.0135  -50.5896  -20.4856 C.ar      1 UNL1        0.0000
     15 C         -44.3486  -51.7552  -20.0650 C.ar      1 UNL1        0.0000
     16 C         -44.4028  -52.1344  -18.7451 C.ar      1 UNL1        0.0000
     17 C         -43.7164  -53.3578  -18.2723 C.2       1 UNL1        0.0000
     18 C         -43.4647  -55.8047  -18.4018 C.3       1 UNL1        0.0000
     19 C         -44.3455  -57.0256  -18.5590 C.3       1 UNL1        0.0000
     20 C         -46.1781  -55.7093  -19.5834 C.3       1 UNL1        0.0000
     21 C         -45.1588  -54.6266  -19.8283 C.3       1 UNL1        0.0000
     22 C         -46.6085  -57.0402  -17.5257 C.2       1 UNL1        0.0000
     23 C         -46.3049  -57.9246  -16.3975 C.3       1 UNL1        0.0000
     24 C         -45.8620  -59.3267  -16.7497 C.3       1 UNL1        0.0000
     25 C         -47.1559  -59.1064  -16.0998 C.3       1 UNL1        0.0000
     26 C         -45.0844  -51.4259  -17.7842 C.ar      1 UNL1        0.0000
     27 C         -45.7349  -50.2851  -18.1970 C.ar      1 UNL1        0.0000
     28 C         -45.6825  -49.8958  -19.5431 C.ar      1 UNL1        0.0000
     29 O         -42.5167  -45.4021  -22.6275 O.2       1 UNL1        0.0000
     30 O         -47.8201  -56.6240  -17.5883 O.2       1 UNL1        0.0000
     31 O         -42.8122  -53.3240  -17.4062 O.2       1 UNL1        0.0000
     32 F         -45.1089  -51.8446  -16.4854 F         1 UNL1        0.0000
     33 H         -40.8201  -46.5283  -23.8665 H         1 UNL1        0.0000
     34 H         -39.7337  -48.4837  -24.8213 H         1 UNL1        0.0000
     35 H         -40.7689  -50.6294  -24.4858 H         1 UNL1        0.0000
     36 H         -42.8113  -50.8911  -23.2578 H         1 UNL1        0.0000
     37 H         -44.3888  -51.0741  -22.4313 H         1 UNL1        0.0000
     38 H         -45.8853  -50.1602  -22.3409 H         1 UNL1        0.0000
     39 H         -43.8218  -52.3243  -20.7455 H         1 UNL1        0.0000
     40 H         -43.2005  -55.7031  -17.3696 H         1 UNL1        0.0000
     41 H         -42.6016  -55.9468  -19.0189 H         1 UNL1        0.0000
     42 H         -44.1531  -57.7124  -17.7619 H         1 UNL1        0.0000
     43 H         -44.1359  -57.5060  -19.4921 H         1 UNL1        0.0000
     44 H         -47.1047  -55.2603  -19.2928 H         1 UNL1        0.0000
     45 H         -46.3069  -56.2715  -20.4847 H         1 UNL1        0.0000
     46 H         -45.6572  -53.6797  -19.8193 H         1 UNL1        0.0000
     47 H         -44.6992  -54.8263  -20.7728 H         1 UNL1        0.0000
     48 H         -45.9478  -57.1059  -15.8088 H         1 UNL1        0.0000
     49 H         -45.0623  -59.7874  -16.2079 H         1 UNL1        0.0000
     50 H         -45.5365  -59.8157  -17.6441 H         1 UNL1        0.0000
     51 H         -47.2996  -59.4156  -15.0855 H         1 UNL1        0.0000
     52 H         -48.1635  -59.3788  -16.3318 H         1 UNL1        0.0000
     53 H         -46.2613  -49.7161  -17.5149 H         1 UNL1        0.0000
     54 H         -46.1794  -49.0365  -19.8263 H         1 UNL1        0.0000
     55 H         -44.6264  -45.9475  -21.3592 H         1 UNL1        0.0000
@<TRIPOS>BOND
     1    1   18 1
     2    1   21 1
     3    1   17 am
     4    2   19 1
     5    2   20 1
     6    2   22 am
     7    3    4 1
     8    3   12 2
     9    4    5 am
    10    4   55 1
    11    5   29 2
    12    5    6 1
    13    6    7 ar
    14    6   11 ar
    15    7    8 ar
    16    7   33 1
    17    8   34 1
    18    8    9 ar
    19    9   10 ar
    20    9   35 1
    21   10   11 ar
    22   10   36 1
    23   11   12 1
    24   12   13 1
    25   13   37 1
    26   13   38 1
    27   13   14 1
    28   14   15 ar
    29   14   28 ar
    30   15   39 1
    31   15   16 ar
    32   16   26 ar
    33   16   17 1
    34   17   31 2
    35   18   19 1
    36   18   40 1
    37   18   41 1
    38   19   42 1
    39   19   43 1
    40   20   21 1
    41   20   45 1
    42   20   44 1
    43   21   46 1
    44   21   47 1
    45   22   30 2
    46   22   23 1
    47   23   25 1
    48   23   24 1
    49   23   48 1
    50   24   25 1
    51   24   49 1
    52   24   50 1
    53   25   51 1
    54   25   52 1
    55   26   27 ar
    56   26   32 1
    57   27   28 ar
    58   27   53 1
    59   28   54 1
@<TRIPOS>SUBSTRUCTURE
1 UNL1 1
@<TRIPOS>COMMENT
olaparib
PLANTSproteinTorsions
102
4661 30.7358
5386 47.4981
6210 29.8310
5890 278.6335
4461 169.0220
1390 86.9434
2824 53.1008
4339 35.5271
2732 89.6712
4792 104.9980
3407 160.4056
5134 353.2169
6916 162.9715
7370 13.6358
6038 9.5431
7225 177.1163
3592 321.1746
2064 36.3308
2488 186.5090
1253 175.0370
2069 108.5740
2569 295.4106
3058 114.0226
1748 78.7459
1162 165.3491
1509 241.4438
560 137.2061
1627 169.7064
1941 152.2647
3631 260.7574
2381 52.8690
4221 141.7519
4687 18.6529
6983 43.7887
6668 243.9975
7305 241.4064
8693 70.0947
8404 93.2761
9055 70.0544
7052 335.2473
4708 144.3875
2652 238.6170
4332 256.7886
3011 51.3462
2257 91.3596
2778 266.1967
2057 64.7928
192 22.2648
315 188.7173
1085 67.3875
1007 120.3936
1407 135.6516
4816 51.1519
3131 20.2510
4654 183.7375
5144 119.5486
117 273.4991
6 196.6023
259 175.5405
1979 217.9170
2609 127.9829
2623 54.1039
5910 48.8188
5937 28.7801
2062 122.6498
890 256.9462
5008 116.1647
8602 249.3180
8478 15.5332
8300 176.8614
7721 193.3088
8466 19.4866
7852 148.3262
5849 56.3433
6302 76.0334
7439 122.2960
6284 92.0029
6003 240.8923
7165 240.8008
7623 289.6714
8158 84.4004
8667 235.7282
9078 58.6913
8684 180.8501
7666 240.8042
4231 249.1649
1659 202.5006
489 53.4023
238 231.1440
46 275.1812
83 308.3689
254 271.1927
1066 269.9586
2112 207.0422
4047 20.0239
5402 224.7251
2544 166.5379
4670 102.9565
4426 8.6035
5656 221.2819
7040 90.2710
6282 244.6075
PLANTSmolcadARTstart hb
PLANTSmolcadARTstart HB
LINES
-47.8201 -56.624 -17.5883 -48.958 -56.853 -16.406 0 255 0 5
-47.8201 -56.624 -17.5883 -48.965 -54.951 -18.265 0 255 0 5
PLANTSmolcadARTstart HBCH
LINES
PLANTSmolcadARTstart HB-CHO
LINES
PLANTSmolcadARTend
PLANTSmolcadARTstart HB_WATER
LINES
PLANTSmolcadARTend

PLANTSmolcadARTend

