@<TRIPOS>MOLECULE
olaparib_entry_00001_conf_43
55 59 1
SMALL
NO_CHARGES


@<TRIPOS>ATOM
      1 N         -17.3050  -38.9135   -1.6510 N.am      1 UNL1        0.0000
      2 N         -18.7074  -39.4963   -3.7586 N.am      1 UNL1        0.0000
      3 N         -15.0001  -43.3248   -3.6969 N.2       1 UNL1        0.0000
      4 N         -15.8791  -44.2843   -3.8565 N.am      1 UNL1        0.0000
      5 C         -15.8900  -45.4018   -3.1163 C.2       1 UNL1        0.0000
      6 C         -14.9317  -45.5578   -2.1360 C.ar      1 UNL1        0.0000
      7 C         -14.8852  -46.7102   -1.3505 C.ar      1 UNL1        0.0000
      8 C         -13.9058  -46.8537   -0.3915 C.ar      1 UNL1        0.0000
      9 C         -13.0017  -45.8207   -0.2616 C.ar      1 UNL1        0.0000
     10 C         -13.0357  -44.6720   -1.0343 C.ar      1 UNL1        0.0000
     11 C         -14.0105  -44.5387   -1.9786 C.ar      1 UNL1        0.0000
     12 C         -14.0192  -43.4047   -2.7458 C.2       1 UNL1        0.0000
     13 C         -13.1479  -42.2429   -2.6278 C.3       1 UNL1        0.0000
     14 C         -13.5939  -41.3651   -1.5107 C.ar      1 UNL1        0.0000
     15 C         -14.5510  -40.3922   -1.8500 C.ar      1 UNL1        0.0000
     16 C         -15.0171  -39.5275   -0.8888 C.ar      1 UNL1        0.0000
     17 C         -16.0218  -38.4906   -1.2156 C.2       1 UNL1        0.0000
     18 C         -18.3017  -37.9432   -1.9706 C.3       1 UNL1        0.0000
     19 C         -19.3151  -38.4550   -2.9715 C.3       1 UNL1        0.0000
     20 C         -18.2736  -40.7023   -3.0450 C.3       1 UNL1        0.0000
     21 C         -17.5749  -40.3351   -1.7612 C.3       1 UNL1        0.0000
     22 C         -18.5274  -39.3849   -5.1404 C.2       1 UNL1        0.0000
     23 C         -18.8921  -38.2463   -5.9877 C.3       1 UNL1        0.0000
     24 C         -19.7556  -38.5586   -7.1889 C.3       1 UNL1        0.0000
     25 C         -18.3691  -38.1243   -7.3738 C.3       1 UNL1        0.0000
     26 C         -14.5951  -39.5555    0.4193 C.ar      1 UNL1        0.0000
     27 C         -13.6582  -40.5081    0.7503 C.ar      1 UNL1        0.0000
     28 C         -13.1798  -41.3913   -0.2282 C.ar      1 UNL1        0.0000
     29 O         -16.7252  -46.3321   -3.2535 O.2       1 UNL1        0.0000
     30 O         -17.9859  -40.3744   -5.7511 O.2       1 UNL1        0.0000
     31 O         -15.7741  -37.2666   -1.1194 O.2       1 UNL1        0.0000
     32 F         -15.0882  -38.6739    1.3371 F         1 UNL1        0.0000
     33 H         -15.5854  -47.4558   -1.4872 H         1 UNL1        0.0000
     34 H         -13.8513  -47.6957    0.2013 H         1 UNL1        0.0000
     35 H         -12.2597  -45.9087    0.4496 H         1 UNL1        0.0000
     36 H         -12.3343  -43.9271   -0.8978 H         1 UNL1        0.0000
     37 H         -13.1737  -41.6888   -3.5429 H         1 UNL1        0.0000
     38 H         -12.1517  -42.5774   -2.4253 H         1 UNL1        0.0000
     39 H         -14.9022  -40.3275   -2.8181 H         1 UNL1        0.0000
     40 H         -17.8200  -37.0800   -2.3811 H         1 UNL1        0.0000
     41 H         -18.8277  -37.7107   -1.0676 H         1 UNL1        0.0000
     42 H         -19.6245  -37.6550   -3.6106 H         1 UNL1        0.0000
     43 H         -20.1702  -38.8412   -2.4565 H         1 UNL1        0.0000
     44 H         -17.6005  -41.2562   -3.6652 H         1 UNL1        0.0000
     45 H         -19.1335  -41.2950   -2.8120 H         1 UNL1        0.0000
     46 H         -16.6450  -40.8625   -1.7153 H         1 UNL1        0.0000
     47 H         -18.2246  -40.6012   -0.9548 H         1 UNL1        0.0000
     48 H         -18.9143  -37.5852   -5.1470 H         1 UNL1        0.0000
     49 H         -20.5610  -37.9054   -7.4534 H         1 UNL1        0.0000
     50 H         -20.3350  -39.4002   -7.5066 H         1 UNL1        0.0000
     51 H         -18.1665  -37.1560   -7.7816 H         1 UNL1        0.0000
     52 H         -17.5241  -38.5258   -7.8914 H         1 UNL1        0.0000
     53 H         -13.3081  -40.5722    1.7196 H         1 UNL1        0.0000
     54 H         -12.4773  -42.0960    0.0465 H         1 UNL1        0.0000
     55 H         -16.5657  -44.1783   -4.5544 H         1 UNL1        0.0000
@<TRIPOS>BOND
     1    1   18 1
     2    1   21 1
     3    1   17 am
     4    2   19 1
     5    2   20 1
     6    2   22 am
     7    3    4 1
     8    3   12 2
     9    4    5 am
    10    4   55 1
    11    5   29 2
    12    5    6 1
    13    6    7 ar
    14    6   11 ar
    15    7    8 ar
    16    7   33 1
    17    8   34 1
    18    8    9 ar
    19    9   10 ar
    20    9   35 1
    21   10   11 ar
    22   10   36 1
    23   11   12 1
    24   12   13 1
    25   13   37 1
    26   13   38 1
    27   13   14 1
    28   14   15 ar
    29   14   28 ar
    30   15   39 1
    31   15   16 ar
    32   16   26 ar
    33   16   17 1
    34   17   31 2
    35   18   19 1
    36   18   40 1
    37   18   41 1
    38   19   42 1
    39   19   43 1
    40   20   21 1
    41   20   45 1
    42   20   44 1
    43   21   46 1
    44   21   47 1
    45   22   30 2
    46   22   23 1
    47   23   25 1
    48   23   24 1
    49   23   48 1
    50   24   25 1
    51   24   49 1
    52   24   50 1
    53   25   51 1
    54   25   52 1
    55   26   27 ar
    56   26   32 1
    57   27   28 ar
    58   27   53 1
    59   28   54 1
@<TRIPOS>SUBSTRUCTURE
1 UNL1 1
@<TRIPOS>COMMENT
olaparib
PLANTSproteinTorsions
102
4661 37.5040
5386 49.4384
6210 50.3711
5890 4.9814
4461 133.3774
1390 104.8191
2824 334.8921
4339 16.6455
2732 69.1362
4792 340.1779
3407 199.1239
5134 22.1658
6916 358.2635
7370 92.2409
6038 173.8750
7225 122.8900
3592 218.9753
2064 135.8846
2488 99.7407
1253 199.6378
2069 127.3344
2569 79.9085
3058 8.5366
1748 3.7152
1162 348.7003
1509 53.6202
560 87.5362
1627 121.6406
1941 326.8203
3631 83.4416
2381 68.5200
4221 12.1122
4687 74.8412
6983 6.9844
6668 82.5136
7305 216.5831
8693 113.2302
8404 57.6086
9055 85.0827
7052 66.9412
4708 214.4853
2652 16.3720
4332 262.5743
3011 80.7498
2257 198.7619
2778 146.6557
2057 228.1028
192 78.5606
315 38.9611
1085 277.7282
1007 43.2475
1407 145.6123
4816 158.6923
3131 150.2402
4654 261.1637
5144 18.6083
117 14.6533
6 98.1008
259 113.0482
1979 125.0421
2609 163.5978
2623 38.4509
5910 333.8445
5937 50.1307
2062 23.8536
890 226.0667
5008 28.5794
8602 276.2473
8478 186.0327
8300 90.2751
7721 32.2682
8466 226.3649
7852 242.9672
5849 196.7613
6302 284.0304
7439 115.9743
6284 181.0900
6003 272.7746
7165 74.2063
7623 245.8124
8158 218.8014
8667 114.9060
9078 113.5848
8684 183.0527
7666 263.3905
4231 107.8726
1659 294.5193
489 166.3473
238 212.7217
46 224.8127
83 38.7070
254 242.6952
1066 175.4574
2112 241.1320
4047 276.2314
5402 269.2368
2544 255.8941
4670 51.1087
4426 249.9647
5656 174.5703
7040 145.7428
6282 106.9021
PLANTSmolcadARTstart hb
PLANTSmolcadARTstart HB
LINES
PLANTSmolcadARTstart HBCH
LINES
PLANTSmolcadARTstart HB-CHO
LINES
PLANTSmolcadARTend
PLANTSmolcadARTstart HB_WATER
LINES
PLANTSmolcadARTend

PLANTSmolcadARTend

