@<TRIPOS>MOLECULE
olaparib_entry_00001_conf_79
55 59 1
SMALL
NO_CHARGES


@<TRIPOS>ATOM
      1 N         -20.8630  -32.7685    4.2460 N.am      1 UNL1        0.0000
      2 N         -19.0348  -31.1344    5.1039 N.am      1 UNL1        0.0000
      3 N         -18.4734  -32.7286    0.0796 N.2       1 UNL1        0.0000
      4 N         -18.1819  -31.4623   -0.0945 N.am      1 UNL1        0.0000
      5 C         -16.9260  -31.0037   -0.1913 C.2       1 UNL1        0.0000
      6 C         -15.8828  -31.9024   -0.1039 C.ar      1 UNL1        0.0000
      7 C         -14.5562  -31.4761   -0.1781 C.ar      1 UNL1        0.0000
      8 C         -13.5297  -32.3891   -0.0669 C.ar      1 UNL1        0.0000
      9 C         -13.8840  -33.7088    0.1182 C.ar      1 UNL1        0.0000
     10 C         -15.1959  -34.1458    0.1941 C.ar      1 UNL1        0.0000
     11 C         -16.2042  -33.2346    0.0802 C.ar      1 UNL1        0.0000
     12 C         -17.4950  -33.6809    0.1751 C.2       1 UNL1        0.0000
     13 C         -17.9544  -35.0580    0.3011 C.3       1 UNL1        0.0000
     14 C         -19.3687  -35.0979    0.7650 C.ar      1 UNL1        0.0000
     15 C         -19.5922  -34.6200    2.0686 C.ar      1 UNL1        0.0000
     16 C         -20.8637  -34.6261    2.5902 C.ar      1 UNL1        0.0000
     17 C         -21.1304  -34.1330    3.9602 C.2       1 UNL1        0.0000
     18 C         -21.1121  -32.2551    5.5542 C.3       1 UNL1        0.0000
     19 C         -20.2387  -31.0656    5.8907 C.3       1 UNL1        0.0000
     20 C         -19.1875  -31.0612    3.6467 C.3       1 UNL1        0.0000
     21 C         -20.3386  -31.9208    3.1914 C.3       1 UNL1        0.0000
     22 C         -17.7679  -31.2661    5.6798 C.2       1 UNL1        0.0000
     23 C         -17.4551  -31.3660    7.1079 C.3       1 UNL1        0.0000
     24 C         -17.5008  -30.0744    7.8925 C.3       1 UNL1        0.0000
     25 C         -16.2221  -30.7521    7.6669 C.3       1 UNL1        0.0000
     26 C         -21.9606  -35.0818    1.8981 C.ar      1 UNL1        0.0000
     27 C         -21.7407  -35.5494    0.6222 C.ar      1 UNL1        0.0000
     28 C         -20.4445  -35.5456    0.0873 C.ar      1 UNL1        0.0000
     29 O         -16.6266  -29.7938   -0.3596 O.2       1 UNL1        0.0000
     30 O         -16.7575  -31.3067    4.8908 O.2       1 UNL1        0.0000
     31 O         -21.5799  -34.8767    4.8622 O.2       1 UNL1        0.0000
     32 F         -23.2039  -35.0677    2.4608 F         1 UNL1        0.0000
     33 H         -14.3431  -30.4760   -0.3172 H         1 UNL1        0.0000
     34 H         -12.5418  -32.0983   -0.1191 H         1 UNL1        0.0000
     35 H         -13.1309  -34.4083    0.2052 H         1 UNL1        0.0000
     36 H         -15.4083  -35.1461    0.3344 H         1 UNL1        0.0000
     37 H         -17.3372  -35.5719    1.0081 H         1 UNL1        0.0000
     38 H         -17.8933  -35.5313   -0.6568 H         1 UNL1        0.0000
     39 H         -18.8036  -34.2661    2.6321 H         1 UNL1        0.0000
     40 H         -20.9251  -33.0306    6.2677 H         1 UNL1        0.0000
     41 H         -22.1308  -31.9272    5.5842 H         1 UNL1        0.0000
     42 H         -19.9902  -31.0852    6.9310 H         1 UNL1        0.0000
     43 H         -20.7629  -30.1580    5.6740 H         1 UNL1        0.0000
     44 H         -18.2876  -31.4033    3.1801 H         1 UNL1        0.0000
     45 H         -19.3845  -30.0466    3.3696 H         1 UNL1        0.0000
     46 H         -20.0030  -32.5443    2.3890 H         1 UNL1        0.0000
     47 H         -21.1264  -31.2661    2.8850 H         1 UNL1        0.0000
     48 H         -17.8842  -32.3442    7.1674 H         1 UNL1        0.0000
     49 H         -17.9325  -30.0578    8.8716 H         1 UNL1        0.0000
     50 H         -17.8797  -29.0905    7.7097 H         1 UNL1        0.0000
     51 H         -15.7192  -31.2222    8.4861 H         1 UNL1        0.0000
     52 H         -15.2824  -30.4541    7.2531 H         1 UNL1        0.0000
     53 H         -22.5308  -35.9027    0.0591 H         1 UNL1        0.0000
     54 H         -20.3071  -35.9020   -0.8717 H         1 UNL1        0.0000
     55 H         -18.9224  -30.8163   -0.1580 H         1 UNL1        0.0000
@<TRIPOS>BOND
     1    1   18 1
     2    1   21 1
     3    1   17 am
     4    2   19 1
     5    2   20 1
     6    2   22 am
     7    3    4 1
     8    3   12 2
     9    4    5 am
    10    4   55 1
    11    5   29 2
    12    5    6 1
    13    6    7 ar
    14    6   11 ar
    15    7    8 ar
    16    7   33 1
    17    8   34 1
    18    8    9 ar
    19    9   10 ar
    20    9   35 1
    21   10   11 ar
    22   10   36 1
    23   11   12 1
    24   12   13 1
    25   13   37 1
    26   13   38 1
    27   13   14 1
    28   14   15 ar
    29   14   28 ar
    30   15   39 1
    31   15   16 ar
    32   16   26 ar
    33   16   17 1
    34   17   31 2
    35   18   19 1
    36   18   40 1
    37   18   41 1
    38   19   42 1
    39   19   43 1
    40   20   21 1
    41   20   45 1
    42   20   44 1
    43   21   46 1
    44   21   47 1
    45   22   30 2
    46   22   23 1
    47   23   25 1
    48   23   24 1
    49   23   48 1
    50   24   25 1
    51   24   49 1
    52   24   50 1
    53   25   51 1
    54   25   52 1
    55   26   27 ar
    56   26   32 1
    57   27   28 ar
    58   27   53 1
    59   28   54 1
@<TRIPOS>SUBSTRUCTURE
1 UNL1 1
@<TRIPOS>COMMENT
olaparib
PLANTSproteinTorsions
102
4661 229.9560
5386 39.7888
6210 152.3270
5890 9.3861
4461 6.8023
1390 118.2863
2824 206.6165
4339 117.5408
2732 111.8489
4792 73.3693
3407 124.9670
5134 169.7964
6916 222.6754
7370 22.5182
6038 117.2296
7225 117.6320
3592 242.9620
2064 44.2144
2488 169.7187
1253 330.5744
2069 5.6963
2569 52.6028
3058 176.9404
1748 45.3861
1162 162.1326
1509 215.1451
560 235.7185
1627 228.4670
1941 153.5067
3631 347.6314
2381 137.7348
4221 244.2942
4687 232.0508
6983 245.1082
6668 65.2413
7305 250.3091
8693 258.0061
8404 257.8676
9055 17.5082
7052 117.9038
4708 123.8588
2652 202.0722
4332 181.6566
3011 218.5701
2257 173.6702
2778 132.8279
2057 50.2554
192 41.0775
315 115.7267
1085 132.0459
1007 92.1895
1407 151.3735
4816 91.5058
3131 333.4924
4654 114.8557
5144 231.1605
117 271.6421
6 109.4220
259 271.8076
1979 297.6639
2609 250.4540
2623 44.0077
5910 196.8491
5937 218.4241
2062 128.5011
890 213.0106
5008 20.8134
8602 115.0620
8478 152.9267
8300 263.3841
7721 157.2031
8466 296.3801
7852 265.4337
5849 17.7427
6302 171.8400
7439 273.4172
6284 167.6299
6003 260.1689
7165 253.0949
7623 250.8456
8158 272.6425
8667 261.8599
9078 328.7607
8684 84.2538
7666 92.9853
4231 267.4617
1659 251.8501
489 256.8764
238 137.8835
46 233.5810
83 93.7934
254 137.2759
1066 201.2844
2112 158.3046
4047 193.2322
5402 271.2489
2544 226.7846
4670 50.0684
4426 249.8191
5656 230.7767
7040 60.9278
6282 140.2450
PLANTSmolcadARTstart hb
PLANTSmolcadARTstart HB
LINES
PLANTSmolcadARTstart HBCH
LINES
PLANTSmolcadARTstart HB-CHO
LINES
PLANTSmolcadARTend
PLANTSmolcadARTstart HB_WATER
LINES
PLANTSmolcadARTend

PLANTSmolcadARTend

