@<TRIPOS>MOLECULE
olaparib_entry_00001_conf_76
55 59 1
SMALL
NO_CHARGES


@<TRIPOS>ATOM
      1 N         -22.3389  -28.6893    1.3712 N.am      1 UNL1        0.0000
      2 N         -21.0513  -29.0041   -0.8630 N.am      1 UNL1        0.0000
      3 N         -23.3909  -34.0585    2.9364 N.2       1 UNL1        0.0000
      4 N         -22.6042  -34.9139    3.5428 N.am      1 UNL1        0.0000
      5 C         -22.5515  -36.2157    3.2272 C.2       1 UNL1        0.0000
      6 C         -23.3626  -36.6865    2.2153 C.ar      1 UNL1        0.0000
      7 C         -23.3620  -38.0359    1.8600 C.ar      1 UNL1        0.0000
      8 C         -24.1964  -38.4876    0.8603 C.ar      1 UNL1        0.0000
      9 C         -25.0078  -37.5527    0.2530 C.ar      1 UNL1        0.0000
     10 C         -25.0191  -36.2110    0.5956 C.ar      1 UNL1        0.0000
     11 C         -24.1878  -35.7738    1.5844 C.ar      1 UNL1        0.0000
     12 C         -24.2241  -34.4476    1.9227 C.2       1 UNL1        0.0000
     13 C         -24.9973  -33.3876    1.2889 C.3       1 UNL1        0.0000
     14 C         -24.9987  -32.1626    2.1355 C.ar      1 UNL1        0.0000
     15 C         -23.8722  -31.3317    2.0002 C.ar      1 UNL1        0.0000
     16 C         -23.7769  -30.1825    2.7478 C.ar      1 UNL1        0.0000
     17 C         -22.6023  -29.2892    2.6304 C.2       1 UNL1        0.0000
     18 C         -21.2184  -27.8183    1.2202 C.3       1 UNL1        0.0000
     19 C         -20.7002  -27.7745   -0.2012 C.3       1 UNL1        0.0000
     20 C         -22.4815  -29.2924   -1.0157 C.3       1 UNL1        0.0000
     21 C         -23.2236  -28.9784    0.2578 C.3       1 UNL1        0.0000
     22 C         -20.0908  -29.8982   -1.3450 C.2       1 UNL1        0.0000
     23 C         -18.6347  -29.7595   -1.2565 C.3       1 UNL1        0.0000
     24 C         -17.8412  -31.0465   -1.2535 C.3       1 UNL1        0.0000
     25 C         -17.8938  -30.2129   -0.0503 C.3       1 UNL1        0.0000
     26 C         -24.7405  -29.7832    3.6434 C.ar      1 UNL1        0.0000
     27 C         -25.8426  -30.5973    3.7750 C.ar      1 UNL1        0.0000
     28 C         -25.9426  -31.7712    3.0145 C.ar      1 UNL1        0.0000
     29 O         -21.8029  -37.0509    3.7962 O.2       1 UNL1        0.0000
     30 O         -20.5081  -30.9606   -1.9300 O.2       1 UNL1        0.0000
     31 O         -21.8447  -29.0511    3.5990 O.2       1 UNL1        0.0000
     32 F         -24.5990  -28.6325    4.3635 F         1 UNL1        0.0000
     33 H         -22.7355  -38.6966    2.3457 H         1 UNL1        0.0000
     34 H         -24.2134  -39.4798    0.5799 H         1 UNL1        0.0000
     35 H         -25.6410  -37.8702   -0.4969 H         1 UNL1        0.0000
     36 H         -25.6468  -35.5509    0.1101 H         1 UNL1        0.0000
     37 H         -26.0046  -33.7210    1.1503 H         1 UNL1        0.0000
     38 H         -24.5517  -33.1525    0.3447 H         1 UNL1        0.0000
     39 H         -23.1191  -31.5844    1.3417 H         1 UNL1        0.0000
     40 H         -20.4318  -28.1580    1.8616 H         1 UNL1        0.0000
     41 H         -21.5400  -26.8303    1.4779 H         1 UNL1        0.0000
     42 H         -19.6365  -27.6616   -0.1925 H         1 UNL1        0.0000
     43 H         -21.1351  -26.9457   -0.7203 H         1 UNL1        0.0000
     44 H         -22.6094  -30.3283   -1.2505 H         1 UNL1        0.0000
     45 H         -22.8754  -28.6840   -1.8029 H         1 UNL1        0.0000
     46 H         -23.8311  -29.8207    0.5159 H         1 UNL1        0.0000
     47 H         -23.8108  -28.1029    0.0795 H         1 UNL1        0.0000
     48 H         -18.6552  -28.8432   -1.8083 H         1 UNL1        0.0000
     49 H         -16.9339  -31.1172   -1.8166 H         1 UNL1        0.0000
     50 H         -18.0583  -32.0703   -1.4764 H         1 UNL1        0.0000
     51 H         -17.0197  -29.6831    0.2665 H         1 UNL1        0.0000
     52 H         -18.1633  -30.3902    0.9691 H         1 UNL1        0.0000
     53 H         -26.5959  -30.3430    4.4340 H         1 UNL1        0.0000
     54 H         -26.7794  -32.3640    3.1327 H         1 UNL1        0.0000
     55 H         -22.0227  -34.5836    4.2657 H         1 UNL1        0.0000
@<TRIPOS>BOND
     1    1   18 1
     2    1   21 1
     3    1   17 am
     4    2   19 1
     5    2   20 1
     6    2   22 am
     7    3    4 1
     8    3   12 2
     9    4    5 am
    10    4   55 1
    11    5   29 2
    12    5    6 1
    13    6    7 ar
    14    6   11 ar
    15    7    8 ar
    16    7   33 1
    17    8   34 1
    18    8    9 ar
    19    9   10 ar
    20    9   35 1
    21   10   11 ar
    22   10   36 1
    23   11   12 1
    24   12   13 1
    25   13   37 1
    26   13   38 1
    27   13   14 1
    28   14   15 ar
    29   14   28 ar
    30   15   39 1
    31   15   16 ar
    32   16   26 ar
    33   16   17 1
    34   17   31 2
    35   18   19 1
    36   18   40 1
    37   18   41 1
    38   19   42 1
    39   19   43 1
    40   20   21 1
    41   20   45 1
    42   20   44 1
    43   21   46 1
    44   21   47 1
    45   22   30 2
    46   22   23 1
    47   23   25 1
    48   23   24 1
    49   23   48 1
    50   24   25 1
    51   24   49 1
    52   24   50 1
    53   25   51 1
    54   25   52 1
    55   26   27 ar
    56   26   32 1
    57   27   28 ar
    58   27   53 1
    59   28   54 1
@<TRIPOS>SUBSTRUCTURE
1 UNL1 1
@<TRIPOS>COMMENT
olaparib
PLANTSproteinTorsions
102
4661 231.4494
5386 176.8624
6210 181.3173
5890 12.2351
4461 207.1678
1390 128.7186
2824 234.9459
4339 204.2150
2732 134.2465
4792 293.0422
3407 307.9181
5134 297.0708
6916 202.5124
7370 43.4337
6038 228.8740
7225 109.6097
3592 234.9327
2064 85.1313
2488 251.2454
1253 57.0846
2069 275.6353
2569 176.6519
3058 165.0165
1748 16.0757
1162 14.0214
1509 71.0694
560 234.0932
1627 262.4036
1941 147.1944
3631 98.6600
2381 12.6611
4221 51.0962
4687 92.5969
6983 353.5248
6668 230.2078
7305 338.2185
8693 7.2418
8404 204.4267
9055 356.2461
7052 54.0280
4708 101.0706
2652 139.2840
4332 216.6054
3011 66.6443
2257 330.2844
2778 134.1815
2057 225.1742
192 277.6424
315 266.0868
1085 197.0271
1007 223.6492
1407 43.1067
4816 193.2119
3131 339.1355
4654 202.6439
5144 326.2643
117 318.3016
6 135.5671
259 133.5827
1979 24.9815
2609 202.5621
2623 222.1140
5910 236.7142
5937 218.2518
2062 337.9783
890 54.6716
5008 268.8164
8602 21.1025
8478 224.7430
8300 104.7431
7721 87.6698
8466 109.1900
7852 323.0241
5849 267.6523
6302 169.1102
7439 294.1156
6284 143.4981
6003 271.2343
7165 206.3905
7623 323.2166
8158 303.8597
8667 172.1098
9078 109.6624
8684 254.0252
7666 181.1388
4231 118.2079
1659 183.1347
489 182.1161
238 191.9688
46 216.4496
83 225.0757
254 200.7440
1066 123.5389
2112 170.2255
4047 268.1950
5402 324.9708
2544 9.5492
4670 178.2970
4426 193.5510
5656 164.5942
7040 101.8307
6282 144.1604
PLANTSmolcadARTstart hb
PLANTSmolcadARTstart HB
LINES
PLANTSmolcadARTstart HBCH
LINES
PLANTSmolcadARTstart HB-CHO
LINES
PLANTSmolcadARTend
PLANTSmolcadARTstart HB_WATER
LINES
PLANTSmolcadARTend

PLANTSmolcadARTend

