@<TRIPOS>MOLECULE
olaparib_entry_00001_conf_01
55 59 1
SMALL
NO_CHARGES


@<TRIPOS>ATOM
      1 N         -16.5706  -38.1083   -1.4465 N.am      1 UNL1        0.0000
      2 N         -17.8992  -36.2411   -0.2231 N.am      1 UNL1        0.0000
      3 N         -12.2823  -42.3846   -3.4981 N.2       1 UNL1        0.0000
      4 N         -12.7257  -43.2787   -4.3483 N.am      1 UNL1        0.0000
      5 C         -13.1762  -44.4856   -3.9776 C.2       1 UNL1        0.0000
      6 C         -13.1760  -44.8109   -2.6368 C.ar      1 UNL1        0.0000
      7 C         -13.6153  -46.0607   -2.1984 C.ar      1 UNL1        0.0000
      8 C         -13.5861  -46.3715   -0.8560 C.ar      1 UNL1        0.0000
      9 C         -13.1092  -45.4016    0.0002 C.ar      1 UNL1        0.0000
     10 C         -12.6699  -44.1576   -0.4209 C.ar      1 UNL1        0.0000
     11 C         -12.7054  -43.8591   -1.7511 C.ar      1 UNL1        0.0000
     12 C         -12.2510  -42.6315   -2.1523 C.2       1 UNL1        0.0000
     13 C         -11.7979  -41.5311   -1.3115 C.3       1 UNL1        0.0000
     14 C         -12.9338  -40.9648   -0.5329 C.ar      1 UNL1        0.0000
     15 C         -14.0304  -40.5240   -1.2950 C.ar      1 UNL1        0.0000
     16 C         -15.1232  -39.9763   -0.6669 C.ar      1 UNL1        0.0000
     17 C         -16.2912  -39.5000   -1.4415 C.2       1 UNL1        0.0000
     18 C         -17.6854  -37.6106   -2.1859 C.3       1 UNL1        0.0000
     19 C         -18.2275  -36.3143   -1.6231 C.3       1 UNL1        0.0000
     20 C         -16.4746  -36.2106    0.1254 C.3       1 UNL1        0.0000
     21 C         -15.7079  -37.2171   -0.6934 C.3       1 UNL1        0.0000
     22 C         -18.8761  -36.2010    0.7761 C.2       1 UNL1        0.0000
     23 C         -20.3290  -36.2380    0.5899 C.3       1 UNL1        0.0000
     24 C         -20.8770  -35.4061   -0.5476 C.3       1 UNL1        0.0000
     25 C         -21.1643  -35.0340    0.8396 C.3       1 UNL1        0.0000
     26 C         -15.2140  -39.8291    0.6970 C.ar      1 UNL1        0.0000
     27 C         -14.1400  -40.2608    1.4420 C.ar      1 UNL1        0.0000
     28 C         -13.0230  -40.8193    0.8042 C.ar      1 UNL1        0.0000
     29 O         -13.6064  -45.3555   -4.7776 O.2       1 UNL1        0.0000
     30 O         -18.4787  -36.1245    1.9932 O.2       1 UNL1        0.0000
     31 O         -17.0299  -40.2809   -2.0844 O.2       1 UNL1        0.0000
     32 F         -16.3215  -39.2778    1.2735 F         1 UNL1        0.0000
     33 H         -13.9631  -46.7531   -2.8799 H         1 UNL1        0.0000
     34 H         -13.9058  -47.2880   -0.5080 H         1 UNL1        0.0000
     35 H         -13.0777  -45.6144    1.0091 H         1 UNL1        0.0000
     36 H         -12.3211  -43.4660    0.2613 H         1 UNL1        0.0000
     37 H         -11.3782  -40.7651   -1.9297 H         1 UNL1        0.0000
     38 H         -11.0620  -41.8996   -0.6274 H         1 UNL1        0.0000
     39 H         -14.0144  -40.6112   -2.3229 H         1 UNL1        0.0000
     40 H         -18.4640  -38.3447   -2.1670 H         1 UNL1        0.0000
     41 H         -17.3502  -37.4150   -3.1836 H         1 UNL1        0.0000
     42 H         -19.2897  -36.2858   -1.7455 H         1 UNL1        0.0000
     43 H         -17.7938  -35.4845   -2.1417 H         1 UNL1        0.0000
     44 H         -16.3603  -36.4422    1.1636 H         1 UNL1        0.0000
     45 H         -16.0886  -35.2339   -0.0796 H         1 UNL1        0.0000
     46 H         -15.1039  -37.8050   -0.0341 H         1 UNL1        0.0000
     47 H         -15.1157  -36.6731   -1.3981 H         1 UNL1        0.0000
     48 H         -20.3795  -37.2528    0.9245 H         1 UNL1        0.0000
     49 H         -21.6556  -35.7964   -1.1694 H         1 UNL1        0.0000
     50 H         -20.4524  -34.9074   -1.3937 H         1 UNL1        0.0000
     51 H         -22.1565  -35.1463    1.2243 H         1 UNL1        0.0000
     52 H         -21.0358  -34.1419    1.4148 H         1 UNL1        0.0000
     53 H         -14.1575  -40.1735    2.4707 H         1 UNL1        0.0000
     54 H         -12.2310  -41.1347    1.3863 H         1 UNL1        0.0000
     55 H         -12.7285  -43.0520   -5.3066 H         1 UNL1        0.0000
@<TRIPOS>BOND
     1    1   18 1
     2    1   21 1
     3    1   17 am
     4    2   19 1
     5    2   20 1
     6    2   22 am
     7    3    4 1
     8    3   12 2
     9    4    5 am
    10    4   55 1
    11    5   29 2
    12    5    6 1
    13    6    7 ar
    14    6   11 ar
    15    7    8 ar
    16    7   33 1
    17    8   34 1
    18    8    9 ar
    19    9   10 ar
    20    9   35 1
    21   10   11 ar
    22   10   36 1
    23   11   12 1
    24   12   13 1
    25   13   37 1
    26   13   38 1
    27   13   14 1
    28   14   15 ar
    29   14   28 ar
    30   15   39 1
    31   15   16 ar
    32   16   26 ar
    33   16   17 1
    34   17   31 2
    35   18   19 1
    36   18   40 1
    37   18   41 1
    38   19   42 1
    39   19   43 1
    40   20   21 1
    41   20   45 1
    42   20   44 1
    43   21   46 1
    44   21   47 1
    45   22   30 2
    46   22   23 1
    47   23   25 1
    48   23   24 1
    49   23   48 1
    50   24   25 1
    51   24   49 1
    52   24   50 1
    53   25   51 1
    54   25   52 1
    55   26   27 ar
    56   26   32 1
    57   27   28 ar
    58   27   53 1
    59   28   54 1
@<TRIPOS>SUBSTRUCTURE
1 UNL1 1
@<TRIPOS>COMMENT
olaparib
PLANTSproteinTorsions
102
4661 148.9980
5386 12.5065
6210 1.7734
5890 77.9597
4461 200.7262
1390 95.6831
2824 348.4981
4339 145.0481
2732 51.3879
4792 2.7034
3407 82.6391
5134 20.3430
6916 7.8393
7370 0.4436
6038 2.9444
7225 355.7519
3592 325.6963
2064 44.3164
2488 175.3214
1253 251.7886
2069 80.8988
2569 250.3789
3058 95.0259
1748 72.7729
1162 14.4491
1509 217.0582
560 84.2684
1627 322.8387
1941 12.5515
3631 96.2249
2381 137.5994
4221 116.6946
4687 114.7283
6983 12.4831
6668 111.1210
7305 149.5567
8693 107.8698
8404 47.5665
9055 317.1601
7052 44.4841
4708 245.7325
2652 56.1949
4332 272.2654
3011 27.6780
2257 215.1520
2778 149.8589
2057 26.9995
192 42.7918
315 238.0302
1085 16.7187
1007 73.5628
1407 304.9755
4816 107.3461
3131 154.2921
4654 270.4221
5144 19.1323
117 177.4797
6 137.3549
259 222.0722
1979 129.9932
2609 49.4940
2623 42.4837
5910 168.4127
5937 33.1541
2062 40.9583
890 266.0361
5008 297.5762
8602 264.2312
8478 239.0487
8300 261.6134
7721 261.0585
8466 263.2481
7852 180.2109
5849 203.7639
6302 147.1257
7439 139.8512
6284 129.1834
6003 126.5627
7165 103.9838
7623 254.2148
8158 21.6758
8667 207.1781
9078 163.7819
8684 190.0596
7666 265.3813
4231 149.7689
1659 59.4387
489 187.8110
238 204.5938
46 229.4706
83 86.3026
254 268.8967
1066 174.5950
2112 250.8214
4047 269.3681
5402 260.4660
2544 104.0000
4670 90.9487
4426 71.4073
5656 174.4594
7040 261.7744
6282 308.1972
PLANTSmolcadARTstart hb
PLANTSmolcadARTstart HB
LINES
-12.2823 -42.3846 -3.49814 -12.228 -40.893 -4.598 0 255 0 5
PLANTSmolcadARTstart HBCH
LINES
PLANTSmolcadARTstart HB-CHO
LINES
PLANTSmolcadARTend
PLANTSmolcadARTstart HB_WATER
LINES
PLANTSmolcadARTend

PLANTSmolcadARTend

