@<TRIPOS>MOLECULE
olaparib_entry_00001_conf_84
55 59 1
SMALL
NO_CHARGES


@<TRIPOS>ATOM
      1 N         -29.3195  -15.8722   -2.7225 N.am      1 UNL1        0.0000
      2 N         -31.3634  -16.7765   -4.0466 N.am      1 UNL1        0.0000
      3 N         -26.2321  -17.9143    3.6218 N.2       1 UNL1        0.0000
      4 N         -25.8317  -18.7751    4.5259 N.am      1 UNL1        0.0000
      5 C         -26.6310  -19.2544    5.4894 C.2       1 UNL1        0.0000
      6 C         -27.9414  -18.8252    5.5391 C.ar      1 UNL1        0.0000
      7 C         -28.8104  -19.2770    6.5329 C.ar      1 UNL1        0.0000
      8 C         -30.1094  -18.8182    6.5757 C.ar      1 UNL1        0.0000
      9 C         -30.4847  -17.9120    5.6066 C.ar      1 UNL1        0.0000
     10 C         -29.6329  -17.4549    4.6150 C.ar      1 UNL1        0.0000
     11 C         -28.3504  -17.9171    4.5800 C.ar      1 UNL1        0.0000
     12 C         -27.5164  -17.4418    3.6037 C.2       1 UNL1        0.0000
     13 C         -27.8503  -16.5414    2.5078 C.3       1 UNL1        0.0000
     14 C         -27.5801  -17.1910    1.1955 C.ar      1 UNL1        0.0000
     15 C         -27.8689  -16.4099    0.0622 C.ar      1 UNL1        0.0000
     16 C         -27.6623  -16.9263   -1.1945 C.ar      1 UNL1        0.0000
     17 C         -27.9599  -16.1304   -2.4066 C.2       1 UNL1        0.0000
     18 C         -29.6459  -15.1043   -3.8805 C.3       1 UNL1        0.0000
     19 C         -31.0164  -15.4334   -4.4321 C.3       1 UNL1        0.0000
     20 C         -31.4856  -17.0457   -2.6097 C.3       1 UNL1        0.0000
     21 C         -30.3541  -16.3996   -1.8523 C.3       1 UNL1        0.0000
     22 C         -31.5776  -17.7942   -4.9808 C.2       1 UNL1        0.0000
     23 C         -31.4798  -17.6867   -6.4389 C.3       1 UNL1        0.0000
     24 C         -32.7893  -17.6338   -7.1930 C.3       1 UNL1        0.0000
     25 C         -31.9150  -18.8019   -7.3202 C.3       1 UNL1        0.0000
     26 C         -27.1772  -18.1929   -1.4191 C.ar      1 UNL1        0.0000
     27 C         -26.8949  -18.9566   -0.3091 C.ar      1 UNL1        0.0000
     28 C         -27.1054  -18.4331    0.9746 C.ar      1 UNL1        0.0000
     29 O         -26.2659  -20.0810    6.3641 O.2       1 UNL1        0.0000
     30 O         -31.8939  -18.9542   -4.5342 O.2       1 UNL1        0.0000
     31 O         -27.0569  -15.6841   -3.1511 O.2       1 UNL1        0.0000
     32 F         -26.9899  -18.6606   -2.6875 F         1 UNL1        0.0000
     33 H         -28.4806  -19.9560    7.2365 H         1 UNL1        0.0000
     34 H         -30.7701  -19.1377    7.3000 H         1 UNL1        0.0000
     35 H         -31.4524  -17.5550    5.6214 H         1 UNL1        0.0000
     36 H         -29.9632  -16.7749    3.9122 H         1 UNL1        0.0000
     37 H         -27.2594  -15.6530    2.5893 H         1 UNL1        0.0000
     38 H         -28.8914  -16.3001    2.5641 H         1 UNL1        0.0000
     39 H         -28.2352  -15.4518    0.1740 H         1 UNL1        0.0000
     40 H         -28.9154  -15.2997   -4.6379 H         1 UNL1        0.0000
     41 H         -29.6518  -14.0730   -3.5933 H         1 UNL1        0.0000
     42 H         -31.0020  -15.3576   -5.4990 H         1 UNL1        0.0000
     43 H         -31.7385  -14.7459   -4.0429 H         1 UNL1        0.0000
     44 H         -31.4601  -18.1025   -2.4454 H         1 UNL1        0.0000
     45 H         -32.4113  -16.6396   -2.2587 H         1 UNL1        0.0000
     46 H         -29.9147  -17.1303   -1.2055 H         1 UNL1        0.0000
     47 H         -30.7627  -15.5769   -1.3052 H         1 UNL1        0.0000
     48 H         -30.5822  -17.1089   -6.3694 H         1 UNL1        0.0000
     49 H         -32.9059  -16.9601   -8.0163 H         1 UNL1        0.0000
     50 H         -33.8129  -17.4790   -6.9226 H         1 UNL1        0.0000
     51 H         -31.4014  -18.9823   -8.2415 H         1 UNL1        0.0000
     52 H         -32.0500  -19.8536   -7.1826 H         1 UNL1        0.0000
     53 H         -26.5278  -19.9150   -0.4223 H         1 UNL1        0.0000
     54 H         -26.8859  -19.0269    1.7900 H         1 UNL1        0.0000
     55 H         -24.8976  -19.0853    4.4952 H         1 UNL1        0.0000
@<TRIPOS>BOND
     1    1   18 1
     2    1   21 1
     3    1   17 am
     4    2   19 1
     5    2   20 1
     6    2   22 am
     7    3    4 1
     8    3   12 2
     9    4    5 am
    10    4   55 1
    11    5   29 2
    12    5    6 1
    13    6    7 ar
    14    6   11 ar
    15    7    8 ar
    16    7   33 1
    17    8   34 1
    18    8    9 ar
    19    9   10 ar
    20    9   35 1
    21   10   11 ar
    22   10   36 1
    23   11   12 1
    24   12   13 1
    25   13   37 1
    26   13   38 1
    27   13   14 1
    28   14   15 ar
    29   14   28 ar
    30   15   39 1
    31   15   16 ar
    32   16   26 ar
    33   16   17 1
    34   17   31 2
    35   18   19 1
    36   18   40 1
    37   18   41 1
    38   19   42 1
    39   19   43 1
    40   20   21 1
    41   20   45 1
    42   20   44 1
    43   21   46 1
    44   21   47 1
    45   22   30 2
    46   22   23 1
    47   23   25 1
    48   23   24 1
    49   23   48 1
    50   24   25 1
    51   24   49 1
    52   24   50 1
    53   25   51 1
    54   25   52 1
    55   26   27 ar
    56   26   32 1
    57   27   28 ar
    58   27   53 1
    59   28   54 1
@<TRIPOS>SUBSTRUCTURE
1 UNL1 1
@<TRIPOS>COMMENT
olaparib
PLANTSproteinTorsions
102
4661 46.9109
5386 185.8228
6210 243.7355
5890 204.7140
4461 25.8659
1390 353.5411
2824 195.3476
4339 62.5251
2732 81.6741
4792 130.8352
3407 322.9658
5134 176.5059
6916 332.2886
7370 187.8744
6038 289.2726
7225 101.2091
3592 205.0974
2064 83.1819
2488 336.5998
1253 166.8041
2069 35.7075
2569 339.6899
3058 70.0446
1748 97.9103
1162 22.0763
1509 117.0396
560 86.6361
1627 195.0024
1941 203.5167
3631 73.5404
2381 75.3059
4221 289.9070
4687 215.6119
6983 300.7838
6668 106.2258
7305 224.4484
8693 302.6511
8404 6.1040
9055 358.1180
7052 294.5394
4708 100.5088
2652 37.5227
4332 49.7786
3011 351.1296
2257 243.2649
2778 126.3648
2057 271.9464
192 21.6943
315 266.2434
1085 276.1629
1007 18.3966
1407 237.4446
4816 190.9869
3131 214.4851
4654 90.6539
5144 107.9416
117 51.7434
6 195.7741
259 137.3420
1979 114.4146
2609 264.8313
2623 44.4065
5910 100.2261
5937 133.8965
2062 153.6924
890 261.8376
5008 144.7696
8602 220.1339
8478 275.6000
8300 324.0698
7721 183.3574
8466 244.7279
7852 266.4740
5849 350.6389
6302 286.8464
7439 267.6277
6284 160.1449
6003 255.9349
7165 286.4210
7623 256.7257
8158 170.1230
8667 88.2899
9078 64.0290
8684 128.8997
7666 51.5846
4231 267.9739
1659 219.6178
489 90.4866
238 135.6855
46 257.3292
83 230.7337
254 59.0280
1066 244.6302
2112 308.9892
4047 286.5358
5402 215.9099
2544 153.6543
4670 36.2850
4426 27.6650
5656 52.9324
7040 201.8463
6282 226.1296
PLANTSmolcadARTstart hb
PLANTSmolcadARTstart HB
LINES
PLANTSmolcadARTstart HBCH
LINES
PLANTSmolcadARTstart HB-CHO
LINES
PLANTSmolcadARTend
PLANTSmolcadARTstart HB_WATER
LINES
PLANTSmolcadARTend

PLANTSmolcadARTend

