@<TRIPOS>MOLECULE
olaparib_entry_00001_conf_73
55 59 1
SMALL
NO_CHARGES


@<TRIPOS>ATOM
      1 N         -24.9998  -30.7059    2.7961 N.am      1 UNL1        0.0000
      2 N         -23.1472  -29.0673    3.5907 N.am      1 UNL1        0.0000
      3 N         -21.1981  -34.7221    2.4805 N.2       1 UNL1        0.0000
      4 N         -20.0400  -34.6055    1.8772 N.am      1 UNL1        0.0000
      5 C         -19.0328  -35.4738    2.0454 C.2       1 UNL1        0.0000
      6 C         -19.2158  -36.5460    2.8943 C.ar      1 UNL1        0.0000
      7 C         -18.1937  -37.4685    3.1210 C.ar      1 UNL1        0.0000
      8 C         -18.3918  -38.5199    3.9897 C.ar      1 UNL1        0.0000
      9 C         -19.6240  -38.6003    4.6033 C.ar      1 UNL1        0.0000
     10 C         -20.6471  -37.6921    4.3881 C.ar      1 UNL1        0.0000
     11 C         -20.4416  -36.6567    3.5245 C.ar      1 UNL1        0.0000
     12 C         -21.4572  -35.7580    3.3366 C.2       1 UNL1        0.0000
     13 C         -22.8044  -35.8079    3.8895 C.3       1 UNL1        0.0000
     14 C         -23.7678  -35.1228    2.9841 C.ar      1 UNL1        0.0000
     15 C         -24.2613  -33.8897    3.4461 C.ar      1 UNL1        0.0000
     16 C         -25.1641  -33.1864    2.6852 C.ar      1 UNL1        0.0000
     17 C         -25.7044  -31.8875    3.1458 C.2       1 UNL1        0.0000
     18 C         -25.4924  -29.4345    3.2178 C.3       1 UNL1        0.0000
     19 C         -24.3976  -28.3971    3.3451 C.3       1 UNL1        0.0000
     20 C         -22.6596  -29.9706    2.5427 C.3       1 UNL1        0.0000
     21 C         -23.7849  -30.8203    2.0107 C.3       1 UNL1        0.0000
     22 C         -22.4145  -28.8823    4.7667 C.2       1 UNL1        0.0000
     23 C         -22.7735  -28.0309    5.9040 C.3       1 UNL1        0.0000
     24 C         -22.5222  -26.5497    5.7336 C.3       1 UNL1        0.0000
     25 C         -21.7296  -27.3239    6.6914 C.3       1 UNL1        0.0000
     26 C         -25.6268  -33.6246    1.4670 C.ar      1 UNL1        0.0000
     27 C         -25.1431  -34.8318    1.0157 C.ar      1 UNL1        0.0000
     28 C         -24.2226  -35.5525    1.7901 C.ar      1 UNL1        0.0000
     29 O         -17.9159  -35.3797    1.4749 O.2       1 UNL1        0.0000
     30 O         -21.3063  -29.5177    4.8829 O.2       1 UNL1        0.0000
     31 O         -26.7525  -31.8036    3.8264 O.2       1 UNL1        0.0000
     32 F         -26.5247  -32.8893    0.7489 F         1 UNL1        0.0000
     33 H         -17.2882  -37.3639    2.6370 H         1 UNL1        0.0000
     34 H         -17.6519  -39.2143    4.1729 H         1 UNL1        0.0000
     35 H         -19.7927  -39.3791    5.2584 H         1 UNL1        0.0000
     36 H         -21.5520  -37.7967    4.8733 H         1 UNL1        0.0000
     37 H         -22.8118  -35.3230    4.8434 H         1 UNL1        0.0000
     38 H         -23.0978  -36.8320    3.9922 H         1 UNL1        0.0000
     39 H         -23.9467  -33.5142    4.3542 H         1 UNL1        0.0000
     40 H         -25.9676  -29.5500    4.1698 H         1 UNL1        0.0000
     41 H         -26.1791  -29.0904    2.4721 H         1 UNL1        0.0000
     42 H         -24.6190  -27.7390    4.1588 H         1 UNL1        0.0000
     43 H         -24.3324  -27.8262    2.4421 H         1 UNL1        0.0000
     44 H         -21.9015  -30.6064    2.9497 H         1 UNL1        0.0000
     45 H         -22.2599  -29.3864    1.7402 H         1 UNL1        0.0000
     46 H         -23.4720  -31.8436    2.0152 H         1 UNL1        0.0000
     47 H         -24.0080  -30.4758    1.0235 H         1 UNL1        0.0000
     48 H         -23.5895  -28.6704    6.1678 H         1 UNL1        0.0000
     49 H         -23.2430  -25.8407    6.0845 H         1 UNL1        0.0000
     50 H         -22.2977  -25.9102    4.9056 H         1 UNL1        0.0000
     51 H         -21.8687  -27.1710    7.7413 H         1 UNL1        0.0000
     52 H         -20.6820  -27.4721    6.8457 H         1 UNL1        0.0000
     53 H         -25.4583  -35.2062    0.1065 H         1 UNL1        0.0000
     54 H         -23.8760  -36.4551    1.4286 H         1 UNL1        0.0000
     55 H         -19.9037  -33.8424    1.2698 H         1 UNL1        0.0000
@<TRIPOS>BOND
     1    1   18 1
     2    1   21 1
     3    1   17 am
     4    2   19 1
     5    2   20 1
     6    2   22 am
     7    3    4 1
     8    3   12 2
     9    4    5 am
    10    4   55 1
    11    5   29 2
    12    5    6 1
    13    6    7 ar
    14    6   11 ar
    15    7    8 ar
    16    7   33 1
    17    8   34 1
    18    8    9 ar
    19    9   10 ar
    20    9   35 1
    21   10   11 ar
    22   10   36 1
    23   11   12 1
    24   12   13 1
    25   13   37 1
    26   13   38 1
    27   13   14 1
    28   14   15 ar
    29   14   28 ar
    30   15   39 1
    31   15   16 ar
    32   16   26 ar
    33   16   17 1
    34   17   31 2
    35   18   19 1
    36   18   40 1
    37   18   41 1
    38   19   42 1
    39   19   43 1
    40   20   21 1
    41   20   45 1
    42   20   44 1
    43   21   46 1
    44   21   47 1
    45   22   30 2
    46   22   23 1
    47   23   25 1
    48   23   24 1
    49   23   48 1
    50   24   25 1
    51   24   49 1
    52   24   50 1
    53   25   51 1
    54   25   52 1
    55   26   27 ar
    56   26   32 1
    57   27   28 ar
    58   27   53 1
    59   28   54 1
@<TRIPOS>SUBSTRUCTURE
1 UNL1 1
@<TRIPOS>COMMENT
olaparib
PLANTSproteinTorsions
102
4661 143.6613
5386 21.7010
6210 147.8715
5890 22.9030
4461 339.0702
1390 109.0684
2824 68.1259
4339 44.8084
2732 333.2507
4792 105.9677
3407 109.2859
5134 24.0687
6916 64.2123
7370 21.9558
6038 80.4459
7225 104.7246
3592 320.1343
2064 60.0575
2488 96.8407
1253 340.4382
2069 201.2792
2569 238.7263
3058 182.1457
1748 166.0037
1162 224.4395
1509 69.8064
560 198.8172
1627 232.6587
1941 168.6702
3631 188.1548
2381 52.5689
4221 12.1690
4687 209.9229
6983 191.6053
6668 94.5648
7305 12.4811
8693 246.3830
8404 142.1448
9055 255.2736
7052 287.8975
4708 110.1436
2652 124.4044
4332 176.9548
3011 65.8607
2257 253.0692
2778 53.1532
2057 83.5583
192 147.3874
315 227.3798
1085 321.0171
1007 287.9592
1407 139.5462
4816 92.6354
3131 153.3319
4654 287.2789
5144 234.1834
117 266.4112
6 151.0051
259 77.6660
1979 109.8900
2609 330.7914
2623 100.5012
5910 260.8723
5937 57.0849
2062 47.7191
890 188.4565
5008 201.5552
8602 99.5001
8478 8.3784
8300 114.6645
7721 164.3464
8466 57.2119
7852 253.3024
5849 314.3316
6302 166.0580
7439 244.0695
6284 240.1751
6003 78.1186
7165 267.3000
7623 201.6291
8158 336.8483
8667 240.4200
9078 357.2736
8684 49.0439
7666 202.4465
4231 213.4760
1659 258.7097
489 260.0393
238 127.9209
46 158.4923
83 148.2476
254 105.6692
1066 202.3596
2112 160.8089
4047 189.8658
5402 248.1852
2544 93.0722
4670 256.2255
4426 157.6986
5656 193.1321
7040 233.1342
6282 104.8062
PLANTSmolcadARTstart hb
PLANTSmolcadARTstart HB
LINES
PLANTSmolcadARTstart HBCH
LINES
PLANTSmolcadARTstart HB-CHO
LINES
PLANTSmolcadARTend
PLANTSmolcadARTstart HB_WATER
LINES
PLANTSmolcadARTend

PLANTSmolcadARTend

