@<TRIPOS>MOLECULE
olaparib_entry_00001_conf_26
55 59 1
SMALL
NO_CHARGES


@<TRIPOS>ATOM
      1 N         -25.5378  -30.5712    4.7810 N.am      1 UNL1        0.0000
      2 N         -24.3183  -28.2858    4.5849 N.am      1 UNL1        0.0000
      3 N         -21.9130  -32.7404    1.7228 N.2       1 UNL1        0.0000
      4 N         -21.0917  -31.8224    1.2739 N.am      1 UNL1        0.0000
      5 C         -20.1339  -32.0717    0.3698 C.2       1 UNL1        0.0000
      6 C         -19.9989  -33.3555   -0.1171 C.ar      1 UNL1        0.0000
      7 C         -19.0060  -33.6739   -1.0444 C.ar      1 UNL1        0.0000
      8 C         -18.8761  -34.9679   -1.5008 C.ar      1 UNL1        0.0000
      9 C         -19.7598  -35.8997   -0.9988 C.ar      1 UNL1        0.0000
     10 C         -20.7495  -35.5979   -0.0783 C.ar      1 UNL1        0.0000
     11 C         -20.8712  -34.3140    0.3650 C.ar      1 UNL1        0.0000
     12 C         -21.8434  -34.0363    1.2881 C.2       1 UNL1        0.0000
     13 C         -22.8556  -34.9421    1.8155 C.3       1 UNL1        0.0000
     14 C         -24.1221  -34.2089    2.0909 C.ar      1 UNL1        0.0000
     15 C         -24.1438  -33.4644    3.2838 C.ar      1 UNL1        0.0000
     16 C         -25.2728  -32.7616    3.6303 C.ar      1 UNL1        0.0000
     17 C         -25.3277  -31.9715    4.8809 C.2       1 UNL1        0.0000
     18 C         -25.6016  -29.7766    5.9649 C.3       1 UNL1        0.0000
     19 C         -25.1955  -28.3383    5.7254 C.3       1 UNL1        0.0000
     20 C         -24.8745  -28.7163    3.2975 C.3       1 UNL1        0.0000
     21 C         -25.6844  -29.9761    3.4657 C.3       1 UNL1        0.0000
     22 C         -22.9934  -27.8494    4.6762 C.2       1 UNL1        0.0000
     23 C         -22.2934  -27.4045    5.8841 C.3       1 UNL1        0.0000
     24 C         -22.1371  -25.9100    6.0519 C.3       1 UNL1        0.0000
     25 C         -20.9624  -26.7478    5.8003 C.3       1 UNL1        0.0000
     26 C         -26.4129  -32.7398    2.8625 C.ar      1 UNL1        0.0000
     27 C         -26.3906  -33.4689    1.6952 C.ar      1 UNL1        0.0000
     28 C         -25.2406  -34.1880    1.3390 C.ar      1 UNL1        0.0000
     29 O         -19.3380  -31.2047   -0.0736 O.2       1 UNL1        0.0000
     30 O         -22.2984  -27.8297    3.5983 O.2       1 UNL1        0.0000
     31 O         -25.1960  -32.4977    6.0099 O.2       1 UNL1        0.0000
     32 F         -27.5097  -32.0262    3.2507 F         1 UNL1        0.0000
     33 H         -18.3683  -32.9396   -1.3894 H         1 UNL1        0.0000
     34 H         -18.1506  -35.2273   -2.1861 H         1 UNL1        0.0000
     35 H         -19.6790  -36.8745   -1.3265 H         1 UNL1        0.0000
     36 H         -21.3862  -36.3332    0.2672 H         1 UNL1        0.0000
     37 H         -22.4975  -35.3799    2.7239 H         1 UNL1        0.0000
     38 H         -23.0501  -35.7033    1.0889 H         1 UNL1        0.0000
     39 H         -23.3144  -33.4461    3.8973 H         1 UNL1        0.0000
     40 H         -24.9464  -30.2004    6.6975 H         1 UNL1        0.0000
     41 H         -26.6189  -29.7744    6.2982 H         1 UNL1        0.0000
     42 H         -24.6878  -27.9600    6.5876 H         1 UNL1        0.0000
     43 H         -26.0651  -27.7418    5.5425 H         1 UNL1        0.0000
     44 H         -24.0744  -28.9019    2.6119 H         1 UNL1        0.0000
     45 H         -25.5124  -27.9444    2.9203 H         1 UNL1        0.0000
     46 H         -25.3654  -30.6877    2.7329 H         1 UNL1        0.0000
     47 H         -26.7140  -29.7141    3.3455 H         1 UNL1        0.0000
     48 H         -22.6746  -28.2291    6.4490 H         1 UNL1        0.0000
     49 H         -22.2789  -25.4616    7.0132 H         1 UNL1        0.0000
     50 H         -22.5661  -25.0470    5.5871 H         1 UNL1        0.0000
     51 H         -20.2442  -26.9019    6.5784 H         1 UNL1        0.0000
     52 H         -20.1797  -26.7363    5.0719 H         1 UNL1        0.0000
     53 H         -27.2210  -33.4858    1.0818 H         1 UNL1        0.0000
     54 H         -25.2505  -34.7267    0.4586 H         1 UNL1        0.0000
     55 H         -21.1836  -30.9041    1.6175 H         1 UNL1        0.0000
@<TRIPOS>BOND
     1    1   18 1
     2    1   21 1
     3    1   17 am
     4    2   19 1
     5    2   20 1
     6    2   22 am
     7    3    4 1
     8    3   12 2
     9    4    5 am
    10    4   55 1
    11    5   29 2
    12    5    6 1
    13    6    7 ar
    14    6   11 ar
    15    7    8 ar
    16    7   33 1
    17    8   34 1
    18    8    9 ar
    19    9   10 ar
    20    9   35 1
    21   10   11 ar
    22   10   36 1
    23   11   12 1
    24   12   13 1
    25   13   37 1
    26   13   38 1
    27   13   14 1
    28   14   15 ar
    29   14   28 ar
    30   15   39 1
    31   15   16 ar
    32   16   26 ar
    33   16   17 1
    34   17   31 2
    35   18   19 1
    36   18   40 1
    37   18   41 1
    38   19   42 1
    39   19   43 1
    40   20   21 1
    41   20   45 1
    42   20   44 1
    43   21   46 1
    44   21   47 1
    45   22   30 2
    46   22   23 1
    47   23   25 1
    48   23   24 1
    49   23   48 1
    50   24   25 1
    51   24   49 1
    52   24   50 1
    53   25   51 1
    54   25   52 1
    55   26   27 ar
    56   26   32 1
    57   27   28 ar
    58   27   53 1
    59   28   54 1
@<TRIPOS>SUBSTRUCTURE
1 UNL1 1
@<TRIPOS>COMMENT
olaparib
PLANTSproteinTorsions
102
4661 151.5392
5386 10.1403
6210 19.1526
5890 139.3420
4461 16.5398
1390 215.1125
2824 13.7161
4339 111.0569
2732 115.4932
4792 111.0236
3407 90.5368
5134 25.8509
6916 50.4888
7370 17.7656
6038 79.5445
7225 124.3785
3592 355.9547
2064 71.2564
2488 139.3293
1253 36.3680
2069 226.2203
2569 236.8985
3058 153.3772
1748 123.0687
1162 49.0015
1509 227.1519
560 245.2624
1627 193.4031
1941 112.4174
3631 66.3226
2381 26.6069
4221 195.1654
4687 348.9254
6983 243.2924
6668 184.1794
7305 353.9781
8693 279.6419
8404 256.6442
9055 182.0802
7052 302.0867
4708 112.0569
2652 127.3272
4332 211.7583
3011 125.8050
2257 178.8363
2778 179.2863
2057 48.8761
192 115.5079
315 114.2296
1085 324.0689
1007 242.9853
1407 42.1577
4816 151.1451
3131 202.5695
4654 260.2493
5144 318.3380
117 53.9372
6 168.4317
259 304.2935
1979 209.6614
2609 286.5875
2623 254.6895
5910 101.6014
5937 46.6088
2062 330.0798
890 260.2086
5008 206.2490
8602 147.5752
8478 245.3629
8300 139.0844
7721 90.3952
8466 345.4237
7852 252.8792
5849 21.9403
6302 192.2280
7439 276.5531
6284 215.0161
6003 50.7025
7165 255.2417
7623 209.3238
8158 134.8583
8667 248.4552
9078 62.8106
8684 25.3584
7666 128.0022
4231 272.5586
1659 260.4928
489 21.8145
238 248.0237
46 215.0539
83 88.4170
254 114.5371
1066 96.3484
2112 189.3853
4047 190.9308
5402 245.9836
2544 29.4895
4670 52.0630
4426 26.0753
5656 273.3828
7040 181.2959
6282 36.3214
PLANTSmolcadARTstart hb
PLANTSmolcadARTstart HB
LINES
PLANTSmolcadARTstart HBCH
LINES
PLANTSmolcadARTstart HB-CHO
LINES
PLANTSmolcadARTend
PLANTSmolcadARTstart HB_WATER
LINES
PLANTSmolcadARTend

PLANTSmolcadARTend

