@<TRIPOS>MOLECULE
olaparib_entry_00001_conf_50
55 59 1
SMALL
NO_CHARGES


@<TRIPOS>ATOM
      1 N         -13.7063  -29.3347    1.3581 N.am      1 UNL1        0.0000
      2 N         -11.5586  -27.8789    1.2300 N.am      1 UNL1        0.0000
      3 N         -11.5250  -31.3383   -2.1346 N.2       1 UNL1        0.0000
      4 N         -11.2056  -30.4114   -3.0049 N.am      1 UNL1        0.0000
      5 C         -10.7085  -30.6837   -4.2197 C.2       1 UNL1        0.0000
      6 C         -10.5203  -32.0023   -4.5794 C.ar      1 UNL1        0.0000
      7 C          -9.9874  -32.3409   -5.8238 C.ar      1 UNL1        0.0000
      8 C          -9.7882  -33.6642   -6.1533 C.ar      1 UNL1        0.0000
      9 C         -10.1359  -34.6037   -5.2058 C.ar      1 UNL1        0.0000
     10 C         -10.6653  -34.2821   -3.9672 C.ar      1 UNL1        0.0000
     11 C         -10.8608  -32.9697   -3.6520 C.ar      1 UNL1        0.0000
     12 C         -11.3685  -32.6684   -2.4167 C.2       1 UNL1        0.0000
     13 C         -11.8229  -33.5969   -1.3898 C.3       1 UNL1        0.0000
     14 C         -13.1338  -33.1617   -0.8334 C.ar      1 UNL1        0.0000
     15 C         -13.0728  -32.1425    0.1337 C.ar      1 UNL1        0.0000
     16 C         -14.2300  -31.6805    0.7136 C.ar      1 UNL1        0.0000
     17 C         -14.1984  -30.6112    1.7368 C.2       1 UNL1        0.0000
     18 C         -13.6649  -28.2772    2.3157 C.3       1 UNL1        0.0000
     19 C         -12.5959  -27.2512    2.0066 C.3       1 UNL1        0.0000
     20 C         -11.9382  -28.4031   -0.0865 C.3       1 UNL1        0.0000
     21 C         -13.2537  -29.1340   -0.0059 C.3       1 UNL1        0.0000
     22 C         -10.2435  -27.9961    1.6892 C.2       1 UNL1        0.0000
     23 C          -9.7159  -27.5389    2.9775 C.3       1 UNL1        0.0000
     24 C          -9.4062  -26.0629    3.0854 C.3       1 UNL1        0.0000
     25 C          -8.3195  -27.0448    3.1017 C.3       1 UNL1        0.0000
     26 C         -15.4773  -32.1652    0.3983 C.ar      1 UNL1        0.0000
     27 C         -15.5357  -33.1628   -0.5484 C.ar      1 UNL1        0.0000
     28 C         -14.3569  -33.6372   -1.1413 C.ar      1 UNL1        0.0000
     29 O         -10.3976  -29.8089   -5.0682 O.2       1 UNL1        0.0000
     30 O          -9.3918  -28.5624    0.9152 O.2       1 UNL1        0.0000
     31 O         -14.5891  -30.7993    2.9119 O.2       1 UNL1        0.0000
     32 F         -16.5974  -31.6734    1.0033 F         1 UNL1        0.0000
     33 H          -9.7427  -31.5996   -6.4987 H         1 UNL1        0.0000
     34 H          -9.3964  -33.9390   -7.0667 H         1 UNL1        0.0000
     35 H          -9.9937  -35.6001   -5.4319 H         1 UNL1        0.0000
     36 H         -10.9088  -35.0240   -3.2922 H         1 UNL1        0.0000
     37 H         -11.1000  -33.6319   -0.6017 H         1 UNL1        0.0000
     38 H         -11.9403  -34.5661   -1.8281 H         1 UNL1        0.0000
     39 H         -12.1618  -31.7428    0.4073 H         1 UNL1        0.0000
     40 H         -13.4690  -28.6965    3.2807 H         1 UNL1        0.0000
     41 H         -14.6112  -27.7773    2.2863 H         1 UNL1        0.0000
     42 H         -12.1842  -26.8751    2.9195 H         1 UNL1        0.0000
     43 H         -13.0216  -26.4390    1.4548 H         1 UNL1        0.0000
     44 H         -11.1818  -29.0778   -0.4290 H         1 UNL1        0.0000
     45 H         -12.0397  -27.5851   -0.7689 H         1 UNL1        0.0000
     46 H         -13.1420  -30.0909   -0.4716 H         1 UNL1        0.0000
     47 H         -13.9858  -28.5325   -0.5012 H         1 UNL1        0.0000
     48 H         -10.2901  -28.2683    3.5092 H         1 UNL1        0.0000
     49 H          -9.6571  -25.5272    3.9771 H         1 UNL1        0.0000
     50 H          -9.6361  -25.1965    2.5011 H         1 UNL1        0.0000
     51 H          -7.7736  -27.2168    4.0058 H         1 UNL1        0.0000
     52 H          -7.4261  -27.1787    2.5297 H         1 UNL1        0.0000
     53 H         -16.4481  -33.5615   -0.8218 H         1 UNL1        0.0000
     54 H         -14.4287  -34.3861   -1.8481 H         1 UNL1        0.0000
     55 H         -11.3381  -29.4684   -2.7539 H         1 UNL1        0.0000
@<TRIPOS>BOND
     1    1   18 1
     2    1   21 1
     3    1   17 am
     4    2   19 1
     5    2   20 1
     6    2   22 am
     7    3    4 1
     8    3   12 2
     9    4    5 am
    10    4   55 1
    11    5   29 2
    12    5    6 1
    13    6    7 ar
    14    6   11 ar
    15    7    8 ar
    16    7   33 1
    17    8   34 1
    18    8    9 ar
    19    9   10 ar
    20    9   35 1
    21   10   11 ar
    22   10   36 1
    23   11   12 1
    24   12   13 1
    25   13   37 1
    26   13   38 1
    27   13   14 1
    28   14   15 ar
    29   14   28 ar
    30   15   39 1
    31   15   16 ar
    32   16   26 ar
    33   16   17 1
    34   17   31 2
    35   18   19 1
    36   18   40 1
    37   18   41 1
    38   19   42 1
    39   19   43 1
    40   20   21 1
    41   20   45 1
    42   20   44 1
    43   21   46 1
    44   21   47 1
    45   22   30 2
    46   22   23 1
    47   23   25 1
    48   23   24 1
    49   23   48 1
    50   24   25 1
    51   24   49 1
    52   24   50 1
    53   25   51 1
    54   25   52 1
    55   26   27 ar
    56   26   32 1
    57   27   28 ar
    58   27   53 1
    59   28   54 1
@<TRIPOS>SUBSTRUCTURE
1 UNL1 1
@<TRIPOS>COMMENT
olaparib
PLANTSproteinTorsions
102
4661 193.9513
5386 122.5602
6210 111.8059
5890 202.0998
4461 37.8175
1390 77.5584
2824 240.8976
4339 209.0324
2732 116.0759
4792 85.7319
3407 83.1174
5134 33.4090
6916 66.8671
7370 181.0754
6038 98.4683
7225 130.0316
3592 204.8428
2064 274.7153
2488 215.8797
1253 69.7611
2069 226.3995
2569 224.7453
3058 88.0179
1748 149.8310
1162 283.9854
1509 237.0693
560 278.0475
1627 106.9113
1941 286.0190
3631 340.0001
2381 83.2946
4221 322.4269
4687 259.0431
6983 189.0020
6668 144.2104
7305 233.8940
8693 250.1071
8404 254.1450
9055 270.6392
7052 204.1390
4708 146.3461
2652 115.2200
4332 168.6536
3011 56.7768
2257 86.8452
2778 21.6909
2057 124.7446
192 149.7450
315 119.7384
1085 332.4340
1007 132.0447
1407 135.9214
4816 73.6823
3131 338.1077
4654 45.1605
5144 326.1846
117 192.1535
6 192.2538
259 104.8221
1979 244.1849
2609 34.3786
2623 87.8010
5910 200.6169
5937 211.5683
2062 31.9428
890 307.6963
5008 201.9503
8602 143.3618
8478 238.9064
8300 235.6025
7721 152.6340
8466 349.5973
7852 187.6965
5849 281.5573
6302 167.4581
7439 73.5732
6284 208.5458
6003 253.2210
7165 11.1473
7623 181.4136
8158 300.3448
8667 75.9013
9078 338.0997
8684 358.8753
7666 176.7802
4231 173.7286
1659 236.6124
489 266.3878
238 110.6556
46 208.3448
83 84.2774
254 66.6475
1066 193.6830
2112 148.2152
4047 51.6087
5402 304.9297
2544 228.9393
4670 229.1886
4426 26.0933
5656 181.3965
7040 253.0178
6282 25.1615
PLANTSmolcadARTstart hb
PLANTSmolcadARTstart HB
LINES
PLANTSmolcadARTstart HBCH
LINES
PLANTSmolcadARTstart HB-CHO
LINES
PLANTSmolcadARTend
PLANTSmolcadARTstart HB_WATER
LINES
PLANTSmolcadARTend

PLANTSmolcadARTend

