@<TRIPOS>MOLECULE
olaparib_entry_00001_conf_20
55 59 1
SMALL
NO_CHARGES


@<TRIPOS>ATOM
      1 N         -17.2965  -43.1424   -1.3012 N.am      1 UNL1        0.0000
      2 N         -19.7058  -42.4449   -0.6253 N.am      1 UNL1        0.0000
      3 N         -16.2007  -38.7777   -1.1343 N.2       1 UNL1        0.0000
      4 N         -16.7849  -38.1112   -2.1003 N.am      1 UNL1        0.0000
      5 C         -16.8297  -36.7723   -2.1470 C.2       1 UNL1        0.0000
      6 C         -16.2341  -36.0526   -1.1315 C.ar      1 UNL1        0.0000
      7 C         -16.2688  -34.6577   -1.1206 C.ar      1 UNL1        0.0000
      8 C         -15.6857  -33.9601   -0.0848 C.ar      1 UNL1        0.0000
      9 C         -15.0859  -34.7031    0.9099 C.ar      1 UNL1        0.0000
     10 C         -15.0443  -36.0873    0.9121 C.ar      1 UNL1        0.0000
     11 C         -15.6221  -36.7680   -0.1188 C.ar      1 UNL1        0.0000
     12 C         -15.5874  -38.1364   -0.0923 C.2       1 UNL1        0.0000
     13 C         -14.9192  -38.9918    0.8798 C.3       1 UNL1        0.0000
     14 C         -14.4258  -40.2373    0.2297 C.ar      1 UNL1        0.0000
     15 C         -15.3926  -41.2380    0.0261 C.ar      1 UNL1        0.0000
     16 C         -15.0314  -42.4285   -0.5579 C.ar      1 UNL1        0.0000
     17 C         -16.0252  -43.5025   -0.7824 C.2       1 UNL1        0.0000
     18 C         -18.2791  -44.1507   -1.5356 C.3       1 UNL1        0.0000
     19 C         -19.6932  -43.6159   -1.4630 C.3       1 UNL1        0.0000
     20 C         -18.9148  -41.2952   -1.0772 C.3       1 UNL1        0.0000
     21 C         -17.5686  -41.7453   -1.5836 C.3       1 UNL1        0.0000
     22 C         -20.4303  -42.3838    0.5687 C.2       1 UNL1        0.0000
     23 C         -21.2507  -43.4458    1.1570 C.3       1 UNL1        0.0000
     24 C         -22.6471  -43.5973    0.5972 C.3       1 UNL1        0.0000
     25 C         -22.4531  -43.1238    1.9696 C.3       1 UNL1        0.0000
     26 C         -13.7495  -42.7095   -0.9673 C.ar      1 UNL1        0.0000
     27 C         -12.8040  -41.7291   -0.7675 C.ar      1 UNL1        0.0000
     28 C         -13.1689  -40.5137   -0.1710 C.ar      1 UNL1        0.0000
     29 O         -17.3837  -36.1154   -3.0653 O.2       1 UNL1        0.0000
     30 O         -20.3845  -41.2896    1.2364 O.2       1 UNL1        0.0000
     31 O         -15.7782  -44.7044   -0.5308 O.2       1 UNL1        0.0000
     32 F         -13.4406  -43.9082   -1.5421 F         1 UNL1        0.0000
     33 H         -16.7311  -34.1475   -1.8893 H         1 UNL1        0.0000
     34 H         -15.6980  -32.9295   -0.0550 H         1 UNL1        0.0000
     35 H         -14.6445  -34.2005    1.6952 H         1 UNL1        0.0000
     36 H         -14.5828  -36.5970    1.6819 H         1 UNL1        0.0000
     37 H         -15.6096  -39.2493    1.6557 H         1 UNL1        0.0000
     38 H         -14.0833  -38.4628    1.2882 H         1 UNL1        0.0000
     39 H         -16.3704  -41.0791    0.3147 H         1 UNL1        0.0000
     40 H         -18.1646  -44.9183   -0.7986 H         1 UNL1        0.0000
     41 H         -18.1260  -44.5271   -2.5260 H         1 UNL1        0.0000
     42 H         -20.3385  -44.3617   -1.0488 H         1 UNL1        0.0000
     43 H         -20.0362  -43.3637   -2.4450 H         1 UNL1        0.0000
     44 H         -18.7746  -40.6201   -0.2592 H         1 UNL1        0.0000
     45 H         -19.4368  -40.8070   -1.8735 H         1 UNL1        0.0000
     46 H         -16.8115  -41.1502   -1.1169 H         1 UNL1        0.0000
     47 H         -17.5697  -41.6276   -2.6463 H         1 UNL1        0.0000
     48 H         -20.3926  -44.0628    1.3222 H         1 UNL1        0.0000
     49 H         -23.0494  -44.5728    0.4193 H         1 UNL1        0.0000
     50 H         -23.1607  -43.2289   -0.2662 H         1 UNL1        0.0000
     51 H         -22.7232  -43.7538    2.7913 H         1 UNL1        0.0000
     52 H         -22.7776  -42.2632    2.5149 H         1 UNL1        0.0000
     53 H         -11.8259  -41.8892   -1.0574 H         1 UNL1        0.0000
     54 H         -12.4403  -39.7956   -0.0324 H         1 UNL1        0.0000
     55 H         -17.2113  -38.6195   -2.8280 H         1 UNL1        0.0000
@<TRIPOS>BOND
     1    1   18 1
     2    1   21 1
     3    1   17 am
     4    2   19 1
     5    2   20 1
     6    2   22 am
     7    3    4 1
     8    3   12 2
     9    4    5 am
    10    4   55 1
    11    5   29 2
    12    5    6 1
    13    6    7 ar
    14    6   11 ar
    15    7    8 ar
    16    7   33 1
    17    8   34 1
    18    8    9 ar
    19    9   10 ar
    20    9   35 1
    21   10   11 ar
    22   10   36 1
    23   11   12 1
    24   12   13 1
    25   13   37 1
    26   13   38 1
    27   13   14 1
    28   14   15 ar
    29   14   28 ar
    30   15   39 1
    31   15   16 ar
    32   16   26 ar
    33   16   17 1
    34   17   31 2
    35   18   19 1
    36   18   40 1
    37   18   41 1
    38   19   42 1
    39   19   43 1
    40   20   21 1
    41   20   45 1
    42   20   44 1
    43   21   46 1
    44   21   47 1
    45   22   30 2
    46   22   23 1
    47   23   25 1
    48   23   24 1
    49   23   48 1
    50   24   25 1
    51   24   49 1
    52   24   50 1
    53   25   51 1
    54   25   52 1
    55   26   27 ar
    56   26   32 1
    57   27   28 ar
    58   27   53 1
    59   28   54 1
@<TRIPOS>SUBSTRUCTURE
1 UNL1 1
@<TRIPOS>COMMENT
olaparib
PLANTSproteinTorsions
102
4661 14.5937
5386 353.1667
6210 198.0950
5890 127.9217
4461 225.7425
1390 318.2029
2824 326.4992
4339 171.0291
2732 91.0380
4792 250.1620
3407 33.5478
5134 138.8056
6916 91.1187
7370 284.0532
6038 182.6348
7225 124.4151
3592 189.8995
2064 157.9792
2488 9.7959
1253 312.6267
2069 124.6439
2569 107.5100
3058 12.7056
1748 28.1545
1162 150.0844
1509 118.1567
560 164.1125
1627 129.7133
1941 318.8244
3631 213.3636
2381 240.6092
4221 46.9562
4687 101.6273
6983 235.8300
6668 95.2629
7305 189.9537
8693 76.2948
8404 252.5199
9055 96.1810
7052 62.2912
4708 13.0636
2652 89.1842
4332 286.2256
3011 135.7977
2257 171.9722
2778 144.9156
2057 309.7863
192 32.9435
315 245.9586
1085 292.2997
1007 54.3280
1407 155.7172
4816 123.3400
3131 146.5778
4654 30.0122
5144 282.5398
117 92.7021
6 107.2358
259 130.2585
1979 347.0504
2609 48.8685
2623 51.1395
5910 269.5602
5937 128.5133
2062 192.4035
890 146.6381
5008 33.4315
8602 357.4700
8478 278.2346
8300 268.1754
7721 258.8583
8466 290.0161
7852 160.3196
5849 247.5770
6302 130.1116
7439 199.6323
6284 319.6201
6003 255.8704
7165 70.9935
7623 186.7142
8158 46.4299
8667 116.6129
9078 108.3377
8684 195.3407
7666 329.0397
4231 227.9741
1659 22.7905
489 8.1406
238 201.0454
46 235.6411
83 61.4661
254 173.6621
1066 156.9774
2112 235.7322
4047 276.1481
5402 171.5565
2544 45.1593
4670 102.3692
4426 241.2588
5656 186.8883
7040 256.7621
6282 239.6318
PLANTSmolcadARTstart hb
PLANTSmolcadARTstart HB
LINES
PLANTSmolcadARTstart HBCH
LINES
PLANTSmolcadARTstart HB-CHO
LINES
PLANTSmolcadARTend
PLANTSmolcadARTstart HB_WATER
LINES
PLANTSmolcadARTend

PLANTSmolcadARTend

