@<TRIPOS>MOLECULE
olaparib_entry_00001_conf_86
55 59 1
SMALL
NO_CHARGES


@<TRIPOS>ATOM
      1 N         -65.1477  -55.5284   21.8530 N.am      1 UNL1        0.0000
      2 N         -66.2301  -53.2869   22.5961 N.am      1 UNL1        0.0000
      3 N         -68.1273  -53.9036   18.2648 N.2       1 UNL1        0.0000
      4 N         -68.0664  -52.6173   18.0191 N.am      1 UNL1        0.0000
      5 C         -67.7962  -52.1124   16.8071 C.2       1 UNL1        0.0000
      6 C         -67.5693  -52.9831   15.7611 C.ar      1 UNL1        0.0000
      7 C         -67.2642  -52.5112   14.4839 C.ar      1 UNL1        0.0000
      8 C         -67.0203  -53.3997   13.4589 C.ar      1 UNL1        0.0000
      9 C         -67.0927  -54.7422   13.7648 C.ar      1 UNL1        0.0000
     10 C         -67.3940  -55.2246   15.0275 C.ar      1 UNL1        0.0000
     11 C         -67.6362  -54.3369   16.0341 C.ar      1 UNL1        0.0000
     12 C         -67.9152  -54.8304   17.2803 C.2       1 UNL1        0.0000
     13 C         -68.0772  -56.2249   17.6704 C.3       1 UNL1        0.0000
     14 C         -66.7699  -56.8101   18.0775 C.ar      1 UNL1        0.0000
     15 C         -66.1804  -56.2397   19.2197 C.ar      1 UNL1        0.0000
     16 C         -64.9676  -56.7055   19.6679 C.ar      1 UNL1        0.0000
     17 C         -64.3200  -56.1234   20.8651 C.2       1 UNL1        0.0000
     18 C         -64.5603  -54.9610   23.0234 C.3       1 UNL1        0.0000
     19 C         -65.4080  -53.8626   23.6284 C.3       1 UNL1        0.0000
     20 C         -67.2053  -54.1727   21.9509 C.3       1 UNL1        0.0000
     21 C         -66.5841  -55.5118   21.6473 C.3       1 UNL1        0.0000
     22 C         -66.1211  -51.9481   22.2087 C.2       1 UNL1        0.0000
     23 C         -65.1930  -50.9486   22.7441 C.3       1 UNL1        0.0000
     24 C         -65.2019  -50.7666   24.2450 C.3       1 UNL1        0.0000
     25 C         -65.6930  -49.6977   23.3725 C.3       1 UNL1        0.0000
     26 C         -64.2763  -57.7223   19.0531 C.ar      1 UNL1        0.0000
     27 C         -64.8542  -58.2799   17.9350 C.ar      1 UNL1        0.0000
     28 C         -66.0911  -57.8064   17.4744 C.ar      1 UNL1        0.0000
     29 O         -67.7347  -50.8825   16.5517 O.2       1 UNL1        0.0000
     30 O         -66.9086  -51.5301   21.2865 O.2       1 UNL1        0.0000
     31 O         -63.0783  -56.1415   21.0282 O.2       1 UNL1        0.0000
     32 F         -63.0736  -58.1492   19.5369 F         1 UNL1        0.0000
     33 H         -67.2217  -51.4955   14.3061 H         1 UNL1        0.0000
     34 H         -66.7934  -53.0750   12.5069 H         1 UNL1        0.0000
     35 H         -66.9122  -55.4243   13.0122 H         1 UNL1        0.0000
     36 H         -67.4352  -56.2405   15.2048 H         1 UNL1        0.0000
     37 H         -68.4687  -56.7790   16.8429 H         1 UNL1        0.0000
     38 H         -68.7499  -56.2752   18.5012 H         1 UNL1        0.0000
     39 H         -66.6570  -55.4732   19.7198 H         1 UNL1        0.0000
     40 H         -63.6052  -54.5536   22.7641 H         1 UNL1        0.0000
     41 H         -64.4731  -55.7407   23.7518 H         1 UNL1        0.0000
     42 H         -64.7745  -53.1087   24.0462 H         1 UNL1        0.0000
     43 H         -66.0268  -54.2669   24.4023 H         1 UNL1        0.0000
     44 H         -67.5387  -53.7251   21.0382 H         1 UNL1        0.0000
     45 H         -68.0323  -54.3190   22.6140 H         1 UNL1        0.0000
     46 H         -66.7842  -55.7575   20.6252 H         1 UNL1        0.0000
     47 H         -67.0123  -56.2241   22.3199 H         1 UNL1        0.0000
     48 H         -64.4775  -51.1528   21.9755 H         1 UNL1        0.0000
     49 H         -64.2801  -50.6443   24.7748 H         1 UNL1        0.0000
     50 H         -65.6033  -51.3148   25.0717 H         1 UNL1        0.0000
     51 H         -65.1307  -48.7925   23.2745 H         1 UNL1        0.0000
     52 H         -66.6059  -49.1444   23.3116 H         1 UNL1        0.0000
     53 H         -64.3765  -59.0473   17.4359 H         1 UNL1        0.0000
     54 H         -66.5022  -58.2417   16.6336 H         1 UNL1        0.0000
     55 H         -68.2277  -51.9910   18.7618 H         1 UNL1        0.0000
@<TRIPOS>BOND
     1    1   18 1
     2    1   21 1
     3    1   17 am
     4    2   19 1
     5    2   20 1
     6    2   22 am
     7    3    4 1
     8    3   12 2
     9    4    5 am
    10    4   55 1
    11    5   29 2
    12    5    6 1
    13    6    7 ar
    14    6   11 ar
    15    7    8 ar
    16    7   33 1
    17    8   34 1
    18    8    9 ar
    19    9   10 ar
    20    9   35 1
    21   10   11 ar
    22   10   36 1
    23   11   12 1
    24   12   13 1
    25   13   37 1
    26   13   38 1
    27   13   14 1
    28   14   15 ar
    29   14   28 ar
    30   15   39 1
    31   15   16 ar
    32   16   26 ar
    33   16   17 1
    34   17   31 2
    35   18   19 1
    36   18   40 1
    37   18   41 1
    38   19   42 1
    39   19   43 1
    40   20   21 1
    41   20   45 1
    42   20   44 1
    43   21   46 1
    44   21   47 1
    45   22   30 2
    46   22   23 1
    47   23   25 1
    48   23   24 1
    49   23   48 1
    50   24   25 1
    51   24   49 1
    52   24   50 1
    53   25   51 1
    54   25   52 1
    55   26   27 ar
    56   26   32 1
    57   27   28 ar
    58   27   53 1
    59   28   54 1
@<TRIPOS>SUBSTRUCTURE
1 UNL1 1
@<TRIPOS>COMMENT
olaparib
PLANTSproteinTorsions
102
4661 15.8819
5386 161.8779
6210 164.8170
5890 191.2425
4461 181.9802
1390 194.9250
2824 2.5850
4339 74.8976
2732 354.2699
4792 163.1335
3407 201.6103
5134 243.8142
6916 10.5782
7370 208.3715
6038 152.4846
7225 149.7946
3592 139.9803
2064 232.1787
2488 167.9438
1253 258.4033
2069 59.4963
2569 46.4759
3058 294.3601
1748 182.4093
1162 332.0842
1509 311.7133
560 34.8821
1627 327.9610
1941 34.8551
3631 160.0047
2381 256.6816
4221 4.8454
4687 144.4833
6983 120.8568
6668 236.7330
7305 188.2529
8693 44.3097
8404 38.6446
9055 52.0077
7052 14.6317
4708 23.1400
2652 99.4555
4332 333.5364
3011 126.6506
2257 93.5849
2778 259.0697
2057 5.7278
192 342.2728
315 206.7706
1085 116.8870
1007 335.6729
1407 141.5233
4816 166.0069
3131 307.2371
4654 248.9792
5144 304.1201
117 232.9364
6 204.0304
259 39.5645
1979 112.2777
2609 236.1137
2623 206.5499
5910 40.5622
5937 218.7825
2062 279.3047
890 303.2244
5008 19.6878
8602 326.9013
8478 113.8627
8300 192.1496
7721 47.5108
8466 166.9928
7852 99.7567
5849 207.2927
6302 212.1419
7439 27.4710
6284 46.7032
6003 107.1497
7165 299.3699
7623 122.2642
8158 189.5869
8667 114.3568
9078 81.7695
8684 294.1542
7666 255.3899
4231 238.4916
1659 169.9666
489 156.1597
238 190.3820
46 319.6151
83 34.9596
254 246.7430
1066 84.1601
2112 233.9592
4047 231.1453
5402 188.1852
2544 122.1785
4670 246.7042
4426 90.8145
5656 305.4975
7040 113.2537
6282 122.9251
PLANTSmolcadARTstart hb
PLANTSmolcadARTstart HB
LINES
PLANTSmolcadARTstart HBCH
LINES
PLANTSmolcadARTstart HB-CHO
LINES
PLANTSmolcadARTend
PLANTSmolcadARTstart HB_WATER
LINES
PLANTSmolcadARTend

PLANTSmolcadARTend

