@<TRIPOS>MOLECULE
olaparib_entry_00001_conf_74
55 59 1
SMALL
NO_CHARGES


@<TRIPOS>ATOM
      1 N         -18.1068  -43.0502   -2.0861 N.am      1 UNL1        0.0000
      2 N         -17.7006  -40.5763   -2.7668 N.am      1 UNL1        0.0000
      3 N         -14.9028  -46.7841   -4.6306 N.2       1 UNL1        0.0000
      4 N         -14.7179  -46.2244   -5.8016 N.am      1 UNL1        0.0000
      5 C         -13.9225  -45.1622   -5.9913 C.2       1 UNL1        0.0000
      6 C         -13.2624  -44.6252   -4.9052 C.ar      1 UNL1        0.0000
      7 C         -12.4382  -43.5077   -5.0432 C.ar      1 UNL1        0.0000
      8 C         -11.8056  -42.9753   -3.9405 C.ar      1 UNL1        0.0000
      9 C         -12.0319  -43.5951   -2.7298 C.ar      1 UNL1        0.0000
     10 C         -12.8474  -44.7042   -2.5782 C.ar      1 UNL1        0.0000
     11 C         -13.4666  -45.2248   -3.6761 C.ar      1 UNL1        0.0000
     12 C         -14.2832  -46.3105   -3.5059 C.2       1 UNL1        0.0000
     13 C         -14.5213  -47.0625   -2.2809 C.3       1 UNL1        0.0000
     14 C         -15.0829  -46.1771   -1.2236 C.ar      1 UNL1        0.0000
     15 C         -16.2738  -45.5101   -1.5618 C.ar      1 UNL1        0.0000
     16 C         -16.8635  -44.6622   -0.6551 C.ar      1 UNL1        0.0000
     17 C         -18.1153  -43.9432   -0.9827 C.2       1 UNL1        0.0000
     18 C         -19.2959  -42.3425   -2.4357 C.3       1 UNL1        0.0000
     19 C         -19.0107  -41.0371   -3.1469 C.3       1 UNL1        0.0000
     20 C         -16.5644  -41.4316   -3.1265 C.3       1 UNL1        0.0000
     21 C         -16.8784  -42.8773   -2.8390 C.3       1 UNL1        0.0000
     22 C         -17.4965  -39.3732   -2.0849 C.2       1 UNL1        0.0000
     23 C         -18.5227  -38.4237   -1.6464 C.3       1 UNL1        0.0000
     24 C         -18.7077  -37.1960   -2.5093 C.3       1 UNL1        0.0000
     25 C         -18.1545  -37.0684   -1.1592 C.3       1 UNL1        0.0000
     26 C         -16.3483  -44.4194    0.5962 C.ar      1 UNL1        0.0000
     27 C         -15.1825  -45.0728    0.9261 C.ar      1 UNL1        0.0000
     28 C         -14.5776  -45.9378    0.0030 C.ar      1 UNL1        0.0000
     29 O         -13.7315  -44.6126   -7.1063 O.2       1 UNL1        0.0000
     30 O         -16.2884  -39.0476   -1.8025 O.2       1 UNL1        0.0000
     31 O         -19.1678  -44.0992   -0.3219 O.2       1 UNL1        0.0000
     32 F         -16.9715  -43.5673    1.4611 F         1 UNL1        0.0000
     33 H         -12.3014  -43.0795   -5.9721 H         1 UNL1        0.0000
     34 H         -11.1915  -42.1505   -4.0175 H         1 UNL1        0.0000
     35 H         -11.5690  -43.2117   -1.8915 H         1 UNL1        0.0000
     36 H         -12.9846  -45.1311   -1.6486 H         1 UNL1        0.0000
     37 H         -13.5971  -47.4785   -1.9376 H         1 UNL1        0.0000
     38 H         -15.2251  -47.8424   -2.4857 H         1 UNL1        0.0000
     39 H         -16.7036  -45.6566   -2.4883 H         1 UNL1        0.0000
     40 H         -19.8451  -42.1328   -1.5413 H         1 UNL1        0.0000
     41 H         -19.8548  -42.9613   -3.1071 H         1 UNL1        0.0000
     42 H         -19.7431  -40.3088   -2.8685 H         1 UNL1        0.0000
     43 H         -19.0505  -41.1851   -4.2061 H         1 UNL1        0.0000
     44 H         -15.7077  -41.1382   -2.5567 H         1 UNL1        0.0000
     45 H         -16.3668  -41.3234   -4.1726 H         1 UNL1        0.0000
     46 H         -16.0717  -43.2966   -2.2746 H         1 UNL1        0.0000
     47 H         -17.0065  -43.3709   -3.7788 H         1 UNL1        0.0000
     48 H         -19.1285  -39.2108   -1.2490 H         1 UNL1        0.0000
     49 H         -19.6923  -36.8339   -2.7209 H         1 UNL1        0.0000
     50 H         -18.3909  -36.9044   -3.4889 H         1 UNL1        0.0000
     51 H         -18.7355  -36.6047   -0.3895 H         1 UNL1        0.0000
     52 H         -17.2637  -36.6363   -0.7555 H         1 UNL1        0.0000
     53 H         -14.7538  -44.9258    1.8539 H         1 UNL1        0.0000
     54 H         -13.7037  -46.4150    0.2756 H         1 UNL1        0.0000
     55 H         -15.1862  -46.6036   -6.5805 H         1 UNL1        0.0000
@<TRIPOS>BOND
     1    1   18 1
     2    1   21 1
     3    1   17 am
     4    2   19 1
     5    2   20 1
     6    2   22 am
     7    3    4 1
     8    3   12 2
     9    4    5 am
    10    4   55 1
    11    5   29 2
    12    5    6 1
    13    6    7 ar
    14    6   11 ar
    15    7    8 ar
    16    7   33 1
    17    8   34 1
    18    8    9 ar
    19    9   10 ar
    20    9   35 1
    21   10   11 ar
    22   10   36 1
    23   11   12 1
    24   12   13 1
    25   13   37 1
    26   13   38 1
    27   13   14 1
    28   14   15 ar
    29   14   28 ar
    30   15   39 1
    31   15   16 ar
    32   16   26 ar
    33   16   17 1
    34   17   31 2
    35   18   19 1
    36   18   40 1
    37   18   41 1
    38   19   42 1
    39   19   43 1
    40   20   21 1
    41   20   45 1
    42   20   44 1
    43   21   46 1
    44   21   47 1
    45   22   30 2
    46   22   23 1
    47   23   25 1
    48   23   24 1
    49   23   48 1
    50   24   25 1
    51   24   49 1
    52   24   50 1
    53   25   51 1
    54   25   52 1
    55   26   27 ar
    56   26   32 1
    57   27   28 ar
    58   27   53 1
    59   28   54 1
@<TRIPOS>SUBSTRUCTURE
1 UNL1 1
@<TRIPOS>COMMENT
olaparib
PLANTSproteinTorsions
102
4661 5.9986
5386 44.2651
6210 59.9863
5890 51.0517
4461 6.9617
1390 17.2823
2824 122.6293
4339 229.0487
2732 94.2234
4792 183.2877
3407 263.8461
5134 64.9004
6916 30.4501
7370 244.0575
6038 225.3963
7225 337.4354
3592 69.5633
2064 143.1137
2488 94.4747
1253 60.6619
2069 273.6927
2569 70.8313
3058 127.7631
1748 12.3006
1162 162.0004
1509 202.4462
560 265.2621
1627 72.6997
1941 174.4635
3631 213.8232
2381 65.6116
4221 178.2291
4687 255.8954
6983 277.1735
6668 342.2650
7305 55.8193
8693 45.9978
8404 318.4537
9055 97.1622
7052 28.1755
4708 34.6902
2652 210.5380
4332 141.9270
3011 354.8689
2257 195.4262
2778 294.8686
2057 133.6584
192 205.8358
315 166.0989
1085 168.6652
1007 24.9369
1407 118.3371
4816 229.5908
3131 189.4196
4654 3.5958
5144 309.0515
117 186.3924
6 54.0541
259 73.4242
1979 237.8227
2609 40.0017
2623 136.1056
5910 109.1290
5937 1.8879
2062 128.3527
890 251.7407
5008 240.6240
8602 143.0900
8478 100.0248
8300 21.9995
7721 308.8913
8466 248.3911
7852 36.7782
5849 291.8708
6302 26.1437
7439 330.9520
6284 228.8560
6003 27.5328
7165 126.7941
7623 285.1457
8158 268.4465
8667 43.6301
9078 12.2694
8684 42.1218
7666 147.5092
4231 76.0336
1659 33.6322
489 206.5986
238 196.3422
46 221.5780
83 108.6371
254 219.0330
1066 183.9299
2112 268.0774
4047 249.5223
5402 247.6621
2544 66.5491
4670 55.6235
4426 161.7804
5656 58.3626
7040 269.8063
6282 182.5475
PLANTSmolcadARTstart hb
PLANTSmolcadARTstart HB
LINES
PLANTSmolcadARTstart HBCH
LINES
PLANTSmolcadARTstart HB-CHO
LINES
PLANTSmolcadARTend
PLANTSmolcadARTstart HB_WATER
LINES
PLANTSmolcadARTend

PLANTSmolcadARTend

