@<TRIPOS>MOLECULE
olaparib_entry_00001_conf_40
55 59 1
SMALL
NO_CHARGES


@<TRIPOS>ATOM
      1 N         -23.7730  -69.6629    0.1547 N.am      1 UNL1        0.0000
      2 N         -26.1308  -70.7045   -0.1683 N.am      1 UNL1        0.0000
      3 N         -22.4826  -73.9466   -0.7604 N.2       1 UNL1        0.0000
      4 N         -23.5140  -74.5956   -0.2770 N.am      1 UNL1        0.0000
      5 C         -24.1170  -75.6034   -0.9232 C.2       1 UNL1        0.0000
      6 C         -23.6344  -75.9824   -2.1591 C.ar      1 UNL1        0.0000
      7 C         -24.2370  -77.0117   -2.8833 C.ar      1 UNL1        0.0000
      8 C         -23.7511  -77.3589   -4.1254 C.ar      1 UNL1        0.0000
      9 C         -22.6672  -76.6472   -4.5941 C.ar      1 UNL1        0.0000
     10 C         -22.0596  -75.6234   -3.8866 C.ar      1 UNL1        0.0000
     11 C         -22.5466  -75.2894   -2.6573 C.ar      1 UNL1        0.0000
     12 C         -21.9454  -74.2634   -1.9788 C.2       1 UNL1        0.0000
     13 C         -20.7611  -73.5101   -2.3699 C.3       1 UNL1        0.0000
     14 C         -20.5491  -72.3550   -1.4545 C.ar      1 UNL1        0.0000
     15 C         -21.5989  -71.4205   -1.4054 C.ar      1 UNL1        0.0000
     16 C         -21.4920  -70.3143   -0.5970 C.ar      1 UNL1        0.0000
     17 C         -22.5782  -69.3111   -0.5263 C.2       1 UNL1        0.0000
     18 C         -24.8408  -68.7205    0.2480 C.3       1 UNL1        0.0000
     19 C         -26.1930  -69.3833    0.4007 C.3       1 UNL1        0.0000
     20 C         -25.1991  -71.6527    0.4519 C.3       1 UNL1        0.0000
     21 C         -23.8807  -70.9841    0.7451 C.3       1 UNL1        0.0000
     22 C         -26.9121  -71.0884   -1.2622 C.2       1 UNL1        0.0000
     23 C         -27.8715  -70.2577   -1.9946 C.3       1 UNL1        0.0000
     24 C         -28.9932  -69.6568   -1.1779 C.3       1 UNL1        0.0000
     25 C         -29.2819  -70.6923   -2.1727 C.3       1 UNL1        0.0000
     26 C         -20.3934  -70.0576    0.1886 C.ar      1 UNL1        0.0000
     27 C         -19.3664  -70.9729    0.1398 C.ar      1 UNL1        0.0000
     28 C         -19.4718  -72.1022   -0.6848 C.ar      1 UNL1        0.0000
     29 O         -25.1060  -76.2385   -0.4756 O.2       1 UNL1        0.0000
     30 O         -26.7902  -72.2928   -1.6862 O.2       1 UNL1        0.0000
     31 O         -22.4733  -68.1753   -1.0436 O.2       1 UNL1        0.0000
     32 F         -20.3346  -68.9434    0.9747 F         1 UNL1        0.0000
     33 H         -25.0472  -77.5142   -2.4883 H         1 UNL1        0.0000
     34 H         -24.1792  -78.1162   -4.6791 H         1 UNL1        0.0000
     35 H         -22.2886  -76.8903   -5.5224 H         1 UNL1        0.0000
     36 H         -21.2500  -75.1205   -4.2828 H         1 UNL1        0.0000
     37 H         -20.8875  -73.1489   -3.3692 H         1 UNL1        0.0000
     38 H         -19.9082  -74.1541   -2.3140 H         1 UNL1        0.0000
     39 H         -22.4470  -71.5648   -1.9751 H         1 UNL1        0.0000
     40 H         -24.8497  -68.1240   -0.6406 H         1 UNL1        0.0000
     41 H         -24.6715  -68.1257    1.1219 H         1 UNL1        0.0000
     42 H         -26.9355  -68.8064   -0.1093 H         1 UNL1        0.0000
     43 H         -26.4509  -69.4462    1.4375 H         1 UNL1        0.0000
     44 H         -25.0361  -72.4739   -0.2142 H         1 UNL1        0.0000
     45 H         -25.6207  -72.0013    1.3716 H         1 UNL1        0.0000
     46 H         -23.0934  -71.5957    0.3562 H         1 UNL1        0.0000
     47 H         -23.8086  -70.8679    1.8056 H         1 UNL1        0.0000
     48 H         -27.1136  -69.9185   -2.6690 H         1 UNL1        0.0000
     49 H         -29.3003  -68.6466   -1.3521 H         1 UNL1        0.0000
     50 H         -29.1874  -69.5347   -0.1328 H         1 UNL1        0.0000
     51 H         -29.8077  -70.4354   -3.0686 H         1 UNL1        0.0000
     52 H         -29.7818  -71.6370   -2.1430 H         1 UNL1        0.0000
     53 H         -18.5185  -70.8276    0.7108 H         1 UNL1        0.0000
     54 H         -18.6872  -72.7728   -0.7031 H         1 UNL1        0.0000
     55 H         -23.8625  -74.3298    0.6048 H         1 UNL1        0.0000
@<TRIPOS>BOND
     1    1   18 1
     2    1   21 1
     3    1   17 am
     4    2   19 1
     5    2   20 1
     6    2   22 am
     7    3    4 1
     8    3   12 2
     9    4    5 am
    10    4   55 1
    11    5   29 2
    12    5    6 1
    13    6    7 ar
    14    6   11 ar
    15    7    8 ar
    16    7   33 1
    17    8   34 1
    18    8    9 ar
    19    9   10 ar
    20    9   35 1
    21   10   11 ar
    22   10   36 1
    23   11   12 1
    24   12   13 1
    25   13   37 1
    26   13   38 1
    27   13   14 1
    28   14   15 ar
    29   14   28 ar
    30   15   39 1
    31   15   16 ar
    32   16   26 ar
    33   16   17 1
    34   17   31 2
    35   18   19 1
    36   18   40 1
    37   18   41 1
    38   19   42 1
    39   19   43 1
    40   20   21 1
    41   20   45 1
    42   20   44 1
    43   21   46 1
    44   21   47 1
    45   22   30 2
    46   22   23 1
    47   23   25 1
    48   23   24 1
    49   23   48 1
    50   24   25 1
    51   24   49 1
    52   24   50 1
    53   25   51 1
    54   25   52 1
    55   26   27 ar
    56   26   32 1
    57   27   28 ar
    58   27   53 1
    59   28   54 1
@<TRIPOS>SUBSTRUCTURE
1 UNL1 1
@<TRIPOS>COMMENT
olaparib
PLANTSproteinTorsions
102
4661 200.4353
5386 78.1364
6210 236.5778
5890 0.5476
4461 22.6530
1390 294.7319
2824 155.2364
4339 291.6134
2732 33.4204
4792 252.7064
3407 110.3717
5134 259.6752
6916 292.3619
7370 75.9080
6038 287.3200
7225 66.1984
3592 219.5415
2064 224.3043
2488 194.9164
1253 333.2515
2069 16.3951
2569 3.2520
3058 251.0115
1748 201.1494
1162 251.1093
1509 284.7869
560 169.8838
1627 110.1939
1941 95.9971
3631 18.2331
2381 160.8984
4221 269.4772
4687 272.3821
6983 200.1457
6668 352.5290
7305 101.5755
8693 247.0019
8404 125.7526
9055 7.5972
7052 115.4874
4708 304.8150
2652 259.3219
4332 159.0896
3011 209.0862
2257 14.0436
2778 24.2752
2057 155.4979
192 18.0935
315 41.7774
1085 349.5441
1007 323.4423
1407 132.7055
4816 95.5170
3131 19.6627
4654 36.3870
5144 166.9927
117 298.5241
6 90.0482
259 276.1975
1979 180.0239
2609 258.9518
2623 188.4787
5910 26.0359
5937 129.5041
2062 257.5374
890 273.5417
5008 214.5118
8602 166.1939
8478 126.3568
8300 43.1040
7721 308.3220
8466 191.8600
7852 352.2758
5849 54.2431
6302 242.4605
7439 279.0431
6284 92.2788
6003 352.3317
7165 155.9028
7623 11.8636
8158 29.9702
8667 172.3136
9078 73.9778
8684 127.0628
7666 258.9780
4231 164.0988
1659 30.9947
489 122.3191
238 140.5453
46 94.1749
83 256.9542
254 27.6804
1066 113.8364
2112 8.7940
4047 342.3653
5402 261.6137
2544 205.2635
4670 247.0114
4426 33.8627
5656 259.1089
7040 248.3222
6282 258.3411
PLANTSmolcadARTstart hb
PLANTSmolcadARTstart HB
LINES
-22.4826 -73.9466 -0.760415 -21.6703 -73.2902 0.880213 0 255 0 5
-22.4733 -68.1753 -1.04364 -20.8568 -67.2424 -0.444866 0 255 0 5
PLANTSmolcadARTstart HBCH
LINES
PLANTSmolcadARTstart HB-CHO
LINES
PLANTSmolcadARTend
PLANTSmolcadARTstart HB_WATER
LINES
PLANTSmolcadARTend

PLANTSmolcadARTend

