@<TRIPOS>MOLECULE
olaparib_entry_00001_conf_93
55 59 1
SMALL
NO_CHARGES


@<TRIPOS>ATOM
      1 N         -22.0764  -35.2558    2.3059 N.am      1 UNL1        0.0000
      2 N         -19.7426  -34.3265    2.9680 N.am      1 UNL1        0.0000
      3 N         -22.8858  -30.3115    2.9051 N.2       1 UNL1        0.0000
      4 N         -22.1880  -29.3526    2.3464 N.am      1 UNL1        0.0000
      5 C         -22.6745  -28.1236    2.1233 C.2       1 UNL1        0.0000
      6 C         -23.9735  -27.8462    2.4968 C.ar      1 UNL1        0.0000
      7 C         -24.5360  -26.5897    2.2694 C.ar      1 UNL1        0.0000
      8 C         -25.8425  -26.3417    2.6315 C.ar      1 UNL1        0.0000
      9 C         -26.5381  -27.3806    3.2129 C.ar      1 UNL1        0.0000
     10 C         -25.9928  -28.6324    3.4442 C.ar      1 UNL1        0.0000
     11 C         -24.6983  -28.8666    3.0844 C.ar      1 UNL1        0.0000
     12 C         -24.1802  -30.1147    3.3040 C.2       1 UNL1        0.0000
     13 C         -24.8212  -31.2406    3.9707 C.3       1 UNL1        0.0000
     14 C         -25.1367  -32.3180    2.9924 C.ar      1 UNL1        0.0000
     15 C         -24.0667  -33.1689    2.6627 C.ar      1 UNL1        0.0000
     16 C         -24.2567  -34.1877    1.7601 C.ar      1 UNL1        0.0000
     17 C         -23.1494  -35.0978    1.3901 C.2       1 UNL1        0.0000
     18 C         -20.9930  -36.1284    1.9864 C.3       1 UNL1        0.0000
     19 C         -19.7043  -35.7359    2.6764 C.3       1 UNL1        0.0000
     20 C         -20.7905  -33.8652    3.8851 C.3       1 UNL1        0.0000
     21 C         -22.1074  -34.5200    3.5562 C.3       1 UNL1        0.0000
     22 C         -18.8343  -33.4200    2.4135 C.2       1 UNL1        0.0000
     23 C         -17.7484  -33.7220    1.4771 C.3       1 UNL1        0.0000
     24 C         -16.6774  -34.6637    1.9793 C.3       1 UNL1        0.0000
     25 C         -16.3613  -33.2544    1.7360 C.3       1 UNL1        0.0000
     26 C         -25.4604  -34.4342    1.1433 C.ar      1 UNL1        0.0000
     27 C         -26.5070  -33.6006    1.4668 C.ar      1 UNL1        0.0000
     28 C         -26.3163  -32.5595    2.3865 C.ar      1 UNL1        0.0000
     29 O         -22.0207  -27.1908    1.5902 O.2       1 UNL1        0.0000
     30 O         -18.9469  -32.1865    2.7467 O.2       1 UNL1        0.0000
     31 O         -23.1336  -35.7242    0.3055 O.2       1 UNL1        0.0000
     32 F         -25.5984  -35.4591    0.2527 F         1 UNL1        0.0000
     33 H         -23.9730  -25.8446    1.8302 H         1 UNL1        0.0000
     34 H         -26.2799  -25.4213    2.4742 H         1 UNL1        0.0000
     35 H         -27.5181  -27.2165    3.4903 H         1 UNL1        0.0000
     36 H         -26.5568  -29.3774    3.8825 H         1 UNL1        0.0000
     37 H         -25.7275  -30.9074    4.4319 H         1 UNL1        0.0000
     38 H         -24.1520  -31.6315    4.7087 H         1 UNL1        0.0000
     39 H         -23.1413  -33.0285    3.0969 H         1 UNL1        0.0000
     40 H         -20.8359  -36.1059    0.9279 H         1 UNL1        0.0000
     41 H         -21.2566  -37.1087    2.3264 H         1 UNL1        0.0000
     42 H         -18.8745  -35.9483    2.0355 H         1 UNL1        0.0000
     43 H         -19.5954  -36.2918    3.5844 H         1 UNL1        0.0000
     44 H         -20.8942  -32.8040    3.7972 H         1 UNL1        0.0000
     45 H         -20.5155  -34.1277    4.8854 H         1 UNL1        0.0000
     46 H         -22.8583  -33.7609    3.4857 H         1 UNL1        0.0000
     47 H         -22.3208  -35.2208    4.3351 H         1 UNL1        0.0000
     48 H         -18.4070  -33.6476    0.6375 H         1 UNL1        0.0000
     49 H         -16.2836  -35.4201    1.3326 H         1 UNL1        0.0000
     50 H         -16.5839  -35.3286    2.8124 H         1 UNL1        0.0000
     51 H         -15.7292  -32.9866    0.9152 H         1 UNL1        0.0000
     52 H         -15.9348  -32.4725    2.3275 H         1 UNL1        0.0000
     53 H         -27.4327  -33.7426    1.0319 H         1 UNL1        0.0000
     54 H         -27.1176  -31.9487    2.6112 H         1 UNL1        0.0000
     55 H         -21.2602  -29.5446    2.0780 H         1 UNL1        0.0000
@<TRIPOS>BOND
     1    1   18 1
     2    1   21 1
     3    1   17 am
     4    2   19 1
     5    2   20 1
     6    2   22 am
     7    3    4 1
     8    3   12 2
     9    4    5 am
    10    4   55 1
    11    5   29 2
    12    5    6 1
    13    6    7 ar
    14    6   11 ar
    15    7    8 ar
    16    7   33 1
    17    8   34 1
    18    8    9 ar
    19    9   10 ar
    20    9   35 1
    21   10   11 ar
    22   10   36 1
    23   11   12 1
    24   12   13 1
    25   13   37 1
    26   13   38 1
    27   13   14 1
    28   14   15 ar
    29   14   28 ar
    30   15   39 1
    31   15   16 ar
    32   16   26 ar
    33   16   17 1
    34   17   31 2
    35   18   19 1
    36   18   40 1
    37   18   41 1
    38   19   42 1
    39   19   43 1
    40   20   21 1
    41   20   45 1
    42   20   44 1
    43   21   46 1
    44   21   47 1
    45   22   30 2
    46   22   23 1
    47   23   25 1
    48   23   24 1
    49   23   48 1
    50   24   25 1
    51   24   49 1
    52   24   50 1
    53   25   51 1
    54   25   52 1
    55   26   27 ar
    56   26   32 1
    57   27   28 ar
    58   27   53 1
    59   28   54 1
@<TRIPOS>SUBSTRUCTURE
1 UNL1 1
@<TRIPOS>COMMENT
olaparib
PLANTSproteinTorsions
102
4661 132.8655
5386 151.6078
6210 119.4971
5890 65.4721
4461 24.0016
1390 199.4796
2824 69.3705
4339 47.2693
2732 95.9887
4792 27.1100
3407 152.0519
5134 117.0557
6916 152.0613
7370 224.5846
6038 92.3659
7225 124.8078
3592 203.2441
2064 207.4924
2488 160.0972
1253 20.5375
2069 130.9437
2569 176.4318
3058 131.0406
1748 344.0695
1162 160.0866
1509 245.0161
560 209.2695
1627 172.2881
1941 145.0226
3631 95.3649
2381 81.9681
4221 103.9415
4687 353.3767
6983 222.8640
6668 176.1375
7305 37.2451
8693 51.7255
8404 220.2744
9055 59.2845
7052 126.9366
4708 112.2313
2652 199.3455
4332 169.3404
3011 124.0177
2257 87.5953
2778 118.3341
2057 42.1975
192 128.0713
315 245.6497
1085 92.2252
1007 214.0191
1407 136.2557
4816 62.0364
3131 141.9095
4654 49.0451
5144 286.5983
117 138.5692
6 62.5091
259 90.1577
1979 315.5878
2609 283.9117
2623 329.4378
5910 256.9137
5937 38.3652
2062 59.0648
890 197.1204
5008 9.6853
8602 94.6430
8478 355.5279
8300 288.7263
7721 154.6861
8466 33.1088
7852 185.6618
5849 34.7573
6302 356.6138
7439 187.0902
6284 260.9728
6003 89.5019
7165 281.2814
7623 241.4879
8158 127.4731
8667 186.8570
9078 349.0805
8684 185.8480
7666 194.6658
4231 179.9870
1659 211.3705
489 192.8119
238 105.0478
46 24.4702
83 98.5914
254 220.4350
1066 198.8822
2112 261.2289
4047 193.3150
5402 195.3622
2544 17.2404
4670 239.9702
4426 72.6392
5656 266.2572
7040 163.5544
6282 242.7423
PLANTSmolcadARTstart hb
PLANTSmolcadARTstart HB
LINES
PLANTSmolcadARTstart HBCH
LINES
PLANTSmolcadARTstart HB-CHO
LINES
PLANTSmolcadARTend
PLANTSmolcadARTstart HB_WATER
LINES
PLANTSmolcadARTend

PLANTSmolcadARTend

