@<TRIPOS>MOLECULE
olaparib_entry_00001_conf_07
55 59 1
SMALL
NO_CHARGES


@<TRIPOS>ATOM
      1 N         -44.2310  -54.5685  -19.0104 N.am      1 UNL1        0.0000
      2 N         -45.7962  -56.6000  -18.5958 N.am      1 UNL1        0.0000
      3 N         -46.1981  -47.9923  -22.1186 N.2       1 UNL1        0.0000
      4 N         -47.1445  -47.1081  -22.3213 N.am      1 UNL1        0.0000
      5 C         -48.3757  -47.4323  -22.7408 C.2       1 UNL1        0.0000
      6 C         -48.6693  -48.7602  -22.9734 C.ar      1 UNL1        0.0000
      7 C         -49.9288  -49.1505  -23.4300 C.ar      1 UNL1        0.0000
      8 C         -50.1929  -50.4807  -23.6761 C.ar      1 UNL1        0.0000
      9 C         -49.1667  -51.3738  -23.4516 C.ar      1 UNL1        0.0000
     10 C         -47.9122  -51.0006  -22.9991 C.ar      1 UNL1        0.0000
     11 C         -47.6620  -49.6822  -22.7562 C.ar      1 UNL1        0.0000
     12 C         -46.4113  -49.3282  -22.3261 C.2       1 UNL1        0.0000
     13 C         -45.2985  -50.2107  -22.0006 C.3       1 UNL1        0.0000
     14 C         -45.3027  -50.5455  -20.5497 C.ar      1 UNL1        0.0000
     15 C         -44.5932  -51.7065  -20.1941 C.ar      1 UNL1        0.0000
     16 C         -44.5477  -52.1038  -18.8792 C.ar      1 UNL1        0.0000
     17 C         -43.8122  -53.3228  -18.4739 C.2       1 UNL1        0.0000
     18 C         -43.5435  -55.7653  -18.6468 C.3       1 UNL1        0.0000
     19 C         -44.4199  -56.9953  -18.7464 C.3       1 UNL1        0.0000
     20 C         -46.3424  -55.6924  -19.6107 C.3       1 UNL1        0.0000
     21 C         -45.3580  -54.5952  -19.9242 C.3       1 UNL1        0.0000
     22 C         -46.5943  -57.0468  -17.5387 C.2       1 UNL1        0.0000
     23 C         -46.1927  -57.9375  -16.4466 C.3       1 UNL1        0.0000
     24 C         -45.5968  -59.2659  -16.8544 C.3       1 UNL1        0.0000
     25 C         -46.9065  -59.2179  -16.2005 C.3       1 UNL1        0.0000
     26 C         -45.1687  -51.4182  -17.8622 C.ar      1 UNL1        0.0000
     27 C         -45.8629  -50.2819  -18.2115 C.ar      1 UNL1        0.0000
     28 C         -45.9122  -49.8743  -19.5523 C.ar      1 UNL1        0.0000
     29 O         -49.2967  -46.5991  -22.9395 O.2       1 UNL1        0.0000
     30 O         -47.8118  -56.6448  -17.5019 O.2       1 UNL1        0.0000
     31 O         -42.8431  -53.2858  -17.6812 O.2       1 UNL1        0.0000
     32 F         -45.0945  -51.8542  -16.5711 F         1 UNL1        0.0000
     33 H         -50.6639  -48.4426  -23.5831 H         1 UNL1        0.0000
     34 H         -51.1158  -50.7934  -24.0133 H         1 UNL1        0.0000
     35 H         -49.3430  -52.3743  -23.6309 H         1 UNL1        0.0000
     36 H         -47.1771  -51.7091  -22.8474 H         1 UNL1        0.0000
     37 H         -44.3784  -49.7229  -22.2468 H         1 UNL1        0.0000
     38 H         -45.3998  -51.1158  -22.5626 H         1 UNL1        0.0000
     39 H         -44.1084  -52.2587  -20.9184 H         1 UNL1        0.0000
     40 H         -43.2001  -55.6697  -17.6377 H         1 UNL1        0.0000
     41 H         -42.7300  -55.8913  -19.3313 H         1 UNL1        0.0000
     42 H         -44.1575  -57.6869  -17.9737 H         1 UNL1        0.0000
     43 H         -44.2789  -57.4648  -19.6978 H         1 UNL1        0.0000
     44 H         -47.2483  -55.2573  -19.2438 H         1 UNL1        0.0000
     45 H         -46.5352  -56.2481  -20.5046 H         1 UNL1        0.0000
     46 H         -45.8649  -53.6546  -19.8667 H         1 UNL1        0.0000
     47 H         -44.9718  -54.7809  -20.9038 H         1 UNL1        0.0000
     48 H         -45.9285  -57.1090  -15.8237 H         1 UNL1        0.0000
     49 H         -44.7502  -59.6565  -16.3292 H         1 UNL1        0.0000
     50 H         -45.2199  -59.6784  -17.7670 H         1 UNL1        0.0000
     51 H         -47.0137  -59.5825  -15.2002 H         1 UNL1        0.0000
     52 H         -47.8778  -59.5910  -16.4470 H         1 UNL1        0.0000
     53 H         -46.3471  -49.7299  -17.4856 H         1 UNL1        0.0000
     54 H         -46.4400  -49.0188  -19.7872 H         1 UNL1        0.0000
     55 H         -46.9409  -46.1588  -22.1566 H         1 UNL1        0.0000
@<TRIPOS>BOND
     1    1   18 1
     2    1   21 1
     3    1   17 am
     4    2   19 1
     5    2   20 1
     6    2   22 am
     7    3    4 1
     8    3   12 2
     9    4    5 am
    10    4   55 1
    11    5   29 2
    12    5    6 1
    13    6    7 ar
    14    6   11 ar
    15    7    8 ar
    16    7   33 1
    17    8   34 1
    18    8    9 ar
    19    9   10 ar
    20    9   35 1
    21   10   11 ar
    22   10   36 1
    23   11   12 1
    24   12   13 1
    25   13   37 1
    26   13   38 1
    27   13   14 1
    28   14   15 ar
    29   14   28 ar
    30   15   39 1
    31   15   16 ar
    32   16   26 ar
    33   16   17 1
    34   17   31 2
    35   18   19 1
    36   18   40 1
    37   18   41 1
    38   19   42 1
    39   19   43 1
    40   20   21 1
    41   20   45 1
    42   20   44 1
    43   21   46 1
    44   21   47 1
    45   22   30 2
    46   22   23 1
    47   23   25 1
    48   23   24 1
    49   23   48 1
    50   24   25 1
    51   24   49 1
    52   24   50 1
    53   25   51 1
    54   25   52 1
    55   26   27 ar
    56   26   32 1
    57   27   28 ar
    58   27   53 1
    59   28   54 1
@<TRIPOS>SUBSTRUCTURE
1 UNL1 1
@<TRIPOS>COMMENT
olaparib
PLANTSproteinTorsions
102
4661 26.0743
5386 209.2855
6210 5.9852
5890 234.0898
4461 170.0248
1390 98.5405
2824 8.8239
4339 221.4121
2732 122.7430
4792 99.1841
3407 13.4328
5134 168.3842
6916 84.8972
7370 175.1911
6038 189.2481
7225 183.0049
3592 305.3445
2064 22.4374
2488 204.6582
1253 184.7209
2069 111.8264
2569 295.4131
3058 149.7172
1748 88.1559
1162 140.8114
1509 12.3070
560 129.0570
1627 136.4948
1941 129.0874
3631 213.9976
2381 81.3486
4221 102.9342
4687 46.7787
6983 7.9250
6668 203.5850
7305 145.8783
8693 63.4125
8404 93.2237
9055 93.5498
7052 19.7262
4708 333.8249
2652 284.4717
4332 243.5766
3011 184.4026
2257 217.5166
2778 323.4093
2057 72.4251
192 331.1277
315 213.7208
1085 30.6291
1007 144.6933
1407 132.3891
4816 85.8556
3131 37.0977
4654 212.9320
5144 134.8674
117 18.3137
6 207.7005
259 331.7968
1979 139.3491
2609 146.4170
2623 57.4994
5910 263.8023
5937 26.4412
2062 137.1853
890 260.0728
5008 157.6362
8602 264.5944
8478 37.4405
8300 57.1758
7721 214.0166
8466 313.6040
7852 154.1016
5849 125.3171
6302 246.3568
7439 133.0328
6284 34.7133
6003 253.7832
7165 273.5527
7623 222.3809
8158 260.9820
8667 242.3251
9078 278.7745
8684 205.2599
7666 139.6159
4231 145.6269
1659 268.3984
489 72.8220
238 263.0604
46 256.9773
83 202.6299
254 264.5006
1066 252.2199
2112 191.5913
4047 39.6526
5402 224.5676
2544 198.1038
4670 330.0023
4426 263.3123
5656 230.7409
7040 97.8551
6282 100.3094
PLANTSmolcadARTstart hb
PLANTSmolcadARTstart HB
LINES
-49.2967 -46.5991 -22.9395 -49.7974 -46.0994 -20.9609 0 255 0 5
-47.8118 -56.6448 -17.5019 -48.958 -56.853 -16.406 0 255 0 5
-47.8118 -56.6448 -17.5019 -48.965 -54.951 -18.265 0 255 0 5
PLANTSmolcadARTstart HBCH
LINES
PLANTSmolcadARTstart HB-CHO
LINES
PLANTSmolcadARTend
PLANTSmolcadARTstart HB_WATER
LINES
PLANTSmolcadARTend

PLANTSmolcadARTend

