@<TRIPOS>MOLECULE
olaparib_entry_00001_conf_24
55 59 1
SMALL
NO_CHARGES


@<TRIPOS>ATOM
      1 N           0.5002  -71.1782    7.7469 N.am      1 UNL1        0.0000
      2 N           2.1138  -70.2273    9.5471 N.am      1 UNL1        0.0000
      3 N          -5.8767  -73.0100   11.4806 N.2       1 UNL1        0.0000
      4 N          -6.6770  -73.9265   11.9684 N.am      1 UNL1        0.0000
      5 C          -7.6740  -74.4817   11.2651 C.2       1 UNL1        0.0000
      6 C          -7.8748  -74.0733    9.9626 C.ar      1 UNL1        0.0000
      7 C          -8.9104  -74.6039    9.1925 C.ar      1 UNL1        0.0000
      8 C          -9.1054  -74.1654    7.9005 C.ar      1 UNL1        0.0000
      9 C          -8.2414  -73.1986    7.4312 C.ar      1 UNL1        0.0000
     10 C          -7.2099  -72.6631    8.1843 C.ar      1 UNL1        0.0000
     11 C          -7.0240  -73.1057    9.4607 C.ar      1 UNL1        0.0000
     12 C          -6.0108  -72.5533   10.1973 C.2       1 UNL1        0.0000
     13 C          -5.0167  -71.5830    9.7576 C.3       1 UNL1        0.0000
     14 C          -3.9105  -72.2610    9.0269 C.ar      1 UNL1        0.0000
     15 C          -2.9239  -71.4104    8.4970 C.ar      1 UNL1        0.0000
     16 C          -1.8676  -71.9419    7.7967 C.ar      1 UNL1        0.0000
     17 C          -0.8152  -71.0726    7.2239 C.2       1 UNL1        0.0000
     18 C           1.5427  -70.3600    7.2169 C.3       1 UNL1        0.0000
     19 C           2.6502  -70.1049    8.2166 C.3       1 UNL1        0.0000
     20 C           1.5837  -71.5397    9.9325 C.3       1 UNL1        0.0000
     21 C           0.7556  -72.1243    8.8171 C.3       1 UNL1        0.0000
     22 C           2.0876  -69.1582   10.4474 C.2       1 UNL1        0.0000
     23 C           2.5625  -67.7928   10.2081 C.3       1 UNL1        0.0000
     24 C           4.0390  -67.5522   10.4275 C.3       1 UNL1        0.0000
     25 C           3.0543  -66.9457   11.3262 C.3       1 UNL1        0.0000
     26 C          -1.7105  -73.2898    7.5765 C.ar      1 UNL1        0.0000
     27 C          -2.6769  -74.1215    8.0956 C.ar      1 UNL1        0.0000
     28 C          -3.7565  -73.5824    8.8097 C.ar      1 UNL1        0.0000
     29 O          -8.4509  -75.3626   11.7150 O.2       1 UNL1        0.0000
     30 O           1.5987  -69.3747   11.6133 O.2       1 UNL1        0.0000
     31 O          -1.0504  -70.2576    6.3024 O.2       1 UNL1        0.0000
     32 F          -0.6433  -73.7688    6.8734 F         1 UNL1        0.0000
     33 H          -9.5309  -75.3261    9.5904 H         1 UNL1        0.0000
     34 H          -9.8633  -74.5427    7.3120 H         1 UNL1        0.0000
     35 H          -8.3707  -72.8555    6.4670 H         1 UNL1        0.0000
     36 H          -6.5904  -71.9399    7.7860 H         1 UNL1        0.0000
     37 H          -4.6165  -71.0770   10.6114 H         1 UNL1        0.0000
     38 H          -5.4858  -70.8827    9.0982 H         1 UNL1        0.0000
     39 H          -2.9931  -70.3900    8.6333 H         1 UNL1        0.0000
     40 H           1.1239  -69.4202    6.9218 H         1 UNL1        0.0000
     41 H           1.9711  -70.8807    6.3853 H         1 UNL1        0.0000
     42 H           3.0415  -69.1194    8.0756 H         1 UNL1        0.0000
     43 H           3.4370  -70.8165    8.0753 H         1 UNL1        0.0000
     44 H           0.9726  -71.4313   10.8039 H         1 UNL1        0.0000
     45 H           2.4024  -72.1982   10.1352 H         1 UNL1        0.0000
     46 H          -0.1829  -72.4440    9.2197 H         1 UNL1        0.0000
     47 H           1.3087  -72.9385    8.3997 H         1 UNL1        0.0000
     48 H           1.8428  -67.6432    9.4309 H         1 UNL1        0.0000
     49 H           4.5888  -66.9394    9.7438 H         1 UNL1        0.0000
     50 H           4.8973  -68.1782   10.5552 H         1 UNL1        0.0000
     51 H           2.8941  -65.8879   11.3014 H         1 UNL1        0.0000
     52 H           2.9091  -66.9489   12.3855 H         1 UNL1        0.0000
     53 H          -2.6061  -75.1425    7.9589 H         1 UNL1        0.0000
     54 H          -4.4675  -74.2282    9.1881 H         1 UNL1        0.0000
     55 H          -6.5383  -74.2222   12.8975 H         1 UNL1        0.0000
@<TRIPOS>BOND
     1    1   18 1
     2    1   21 1
     3    1   17 am
     4    2   19 1
     5    2   20 1
     6    2   22 am
     7    3    4 1
     8    3   12 2
     9    4    5 am
    10    4   55 1
    11    5   29 2
    12    5    6 1
    13    6    7 ar
    14    6   11 ar
    15    7    8 ar
    16    7   33 1
    17    8   34 1
    18    8    9 ar
    19    9   10 ar
    20    9   35 1
    21   10   11 ar
    22   10   36 1
    23   11   12 1
    24   12   13 1
    25   13   37 1
    26   13   38 1
    27   13   14 1
    28   14   15 ar
    29   14   28 ar
    30   15   39 1
    31   15   16 ar
    32   16   26 ar
    33   16   17 1
    34   17   31 2
    35   18   19 1
    36   18   40 1
    37   18   41 1
    38   19   42 1
    39   19   43 1
    40   20   21 1
    41   20   45 1
    42   20   44 1
    43   21   46 1
    44   21   47 1
    45   22   30 2
    46   22   23 1
    47   23   25 1
    48   23   24 1
    49   23   48 1
    50   24   25 1
    51   24   49 1
    52   24   50 1
    53   25   51 1
    54   25   52 1
    55   26   27 ar
    56   26   32 1
    57   27   28 ar
    58   27   53 1
    59   28   54 1
@<TRIPOS>SUBSTRUCTURE
1 UNL1 1
@<TRIPOS>COMMENT
olaparib
PLANTSproteinTorsions
102
4661 118.9886
5386 70.0801
6210 0.1173
5890 10.1238
4461 41.3966
1390 25.4483
2824 155.5030
4339 135.5510
2732 30.6259
4792 41.6587
3407 22.6564
5134 14.6875
6916 52.6877
7370 242.7149
6038 143.7462
7225 119.7441
3592 343.6930
2064 208.7902
2488 187.7771
1253 49.7980
2069 53.7410
2569 3.8608
3058 14.8039
1748 201.5977
1162 75.5371
1509 101.0008
560 104.5476
1627 128.5306
1941 59.6125
3631 19.4835
2381 227.2634
4221 268.2958
4687 253.3761
6983 86.4335
6668 133.6090
7305 328.3773
8693 176.9811
8404 25.0829
9055 255.1467
7052 102.2366
4708 74.3711
2652 203.6051
4332 322.2168
3011 157.4475
2257 233.4685
2778 93.6093
2057 345.7494
192 90.3306
315 140.3086
1085 25.9708
1007 354.6251
1407 156.6392
4816 94.6903
3131 255.7752
4654 137.8430
5144 167.9209
117 265.0049
6 299.7154
259 265.1584
1979 167.1696
2609 181.2022
2623 173.5573
5910 74.7996
5937 176.4906
2062 268.4312
890 320.9493
5008 196.8608
8602 73.7065
8478 88.5675
8300 77.3684
7721 261.4069
8466 305.3779
7852 306.8195
5849 38.9909
6302 165.9329
7439 180.8663
6284 83.8140
6003 8.7097
7165 163.7420
7623 111.7066
8158 33.6301
8667 176.6283
9078 52.6144
8684 211.6114
7666 218.6144
4231 346.1395
1659 225.6333
489 82.6475
238 276.0248
46 12.6873
83 124.7099
254 263.7356
1066 227.7672
2112 7.7936
4047 246.8310
5402 245.7636
2544 269.7621
4670 186.6606
4426 184.6356
5656 270.5136
7040 173.5520
6282 270.5642
PLANTSmolcadARTstart hb
PLANTSmolcadARTstart HB
LINES
PLANTSmolcadARTstart HBCH
LINES
PLANTSmolcadARTstart HB-CHO
LINES
PLANTSmolcadARTend
PLANTSmolcadARTstart HB_WATER
LINES
PLANTSmolcadARTend

PLANTSmolcadARTend

