@<TRIPOS>MOLECULE
olaparib_entry_00001_conf_41
55 59 1
SMALL
NO_CHARGES


@<TRIPOS>ATOM
      1 N         -23.6942  -25.7626   17.0413 N.am      1 UNL1        0.0000
      2 N         -22.9834  -25.4975   19.5259 N.am      1 UNL1        0.0000
      3 N         -21.3639  -29.8340   18.0312 N.2       1 UNL1        0.0000
      4 N         -21.9361  -30.3665   19.0836 N.am      1 UNL1        0.0000
      5 C         -22.3152  -31.6509   19.1433 C.2       1 UNL1        0.0000
      6 C         -22.0962  -32.4590   18.0466 C.ar      1 UNL1        0.0000
      7 C         -22.4894  -33.7979   18.0480 C.ar      1 UNL1        0.0000
      8 C         -22.2798  -34.5808   16.9333 C.ar      1 UNL1        0.0000
      9 C         -21.6777  -33.9772   15.8496 C.ar      1 UNL1        0.0000
     10 C         -21.2828  -32.6500   15.8341 C.ar      1 UNL1        0.0000
     11 C         -21.4924  -31.8847   16.9433 C.ar      1 UNL1        0.0000
     12 C         -21.1121  -30.5700   16.9051 C.2       1 UNL1        0.0000
     13 C         -20.4123  -29.8760   15.8318 C.3       1 UNL1        0.0000
     14 C         -21.3459  -28.9863   15.0874 C.ar      1 UNL1        0.0000
     15 C         -22.2732  -28.2843   15.8779 C.ar      1 UNL1        0.0000
     16 C         -23.1836  -27.4456   15.2809 C.ar      1 UNL1        0.0000
     17 C         -24.1744  -26.6956   16.0854 C.2       1 UNL1        0.0000
     18 C         -24.6191  -25.0170   17.8325 C.3       1 UNL1        0.0000
     19 C         -24.0358  -24.5852   19.1608 C.3       1 UNL1        0.0000
     20 C         -21.8213  -25.5640   18.6332 C.3       1 UNL1        0.0000
     21 C         -22.2616  -25.5874   17.1921 C.3       1 UNL1        0.0000
     22 C         -23.0449  -26.2942   20.6729 C.2       1 UNL1        0.0000
     23 C         -24.1364  -26.3513   21.6488 C.3       1 UNL1        0.0000
     24 C         -24.1060  -25.3104   22.7450 C.3       1 UNL1        0.0000
     25 C         -23.8792  -26.7215   23.0653 C.3       1 UNL1        0.0000
     26 C         -23.2458  -27.2441   13.9224 C.ar      1 UNL1        0.0000
     27 C         -22.3377  -27.9319   13.1496 C.ar      1 UNL1        0.0000
     28 C         -21.4080  -28.7892   13.7554 C.ar      1 UNL1        0.0000
     29 O         -22.8640  -32.1799   20.1437 O.2       1 UNL1        0.0000
     30 O         -22.0492  -27.0658   20.9148 O.2       1 UNL1        0.0000
     31 O         -25.4085  -26.8594   15.9474 O.2       1 UNL1        0.0000
     32 F         -24.1698  -26.4005   13.3772 F         1 UNL1        0.0000
     33 H         -22.9371  -34.2028   18.8850 H         1 UNL1        0.0000
     34 H         -22.5612  -35.5725   16.9107 H         1 UNL1        0.0000
     35 H         -21.5128  -34.5452   15.0044 H         1 UNL1        0.0000
     36 H         -20.8362  -32.2453   14.9962 H         1 UNL1        0.0000
     37 H         -19.9992  -30.5965   15.1571 H         1 UNL1        0.0000
     38 H         -19.6335  -29.2780   16.2575 H         1 UNL1        0.0000
     39 H         -22.2702  -28.3987   16.9033 H         1 UNL1        0.0000
     40 H         -25.4798  -25.6257   18.0175 H         1 UNL1        0.0000
     41 H         -24.8709  -24.1313   17.2864 H         1 UNL1        0.0000
     42 H         -24.7994  -24.5984   19.9097 H         1 UNL1        0.0000
     43 H         -23.6439  -23.5926   19.0791 H         1 UNL1        0.0000
     44 H         -21.2644  -26.4527   18.8448 H         1 UNL1        0.0000
     45 H         -21.2116  -24.6993   18.7932 H         1 UNL1        0.0000
     46 H         -21.7660  -26.3959   16.6964 H         1 UNL1        0.0000
     47 H         -22.0077  -24.6413   16.7636 H         1 UNL1        0.0000
     48 H         -24.8245  -26.7016   20.9084 H         1 UNL1        0.0000
     49 H         -25.0117  -24.8305   23.0527 H         1 UNL1        0.0000
     50 H         -23.5687  -24.3999   22.9098 H         1 UNL1        0.0000
     51 H         -24.6184  -27.2663   23.6146 H         1 UNL1        0.0000
     52 H         -23.1022  -27.2570   23.5681 H         1 UNL1        0.0000
     53 H         -22.3413  -27.8160   12.1236 H         1 UNL1        0.0000
     54 H         -20.7383  -29.2933   13.1528 H         1 UNL1        0.0000
     55 H         -22.0946  -29.7946   19.8695 H         1 UNL1        0.0000
@<TRIPOS>BOND
     1    1   18 1
     2    1   21 1
     3    1   17 am
     4    2   19 1
     5    2   20 1
     6    2   22 am
     7    3    4 1
     8    3   12 2
     9    4    5 am
    10    4   55 1
    11    5   29 2
    12    5    6 1
    13    6    7 ar
    14    6   11 ar
    15    7    8 ar
    16    7   33 1
    17    8   34 1
    18    8    9 ar
    19    9   10 ar
    20    9   35 1
    21   10   11 ar
    22   10   36 1
    23   11   12 1
    24   12   13 1
    25   13   37 1
    26   13   38 1
    27   13   14 1
    28   14   15 ar
    29   14   28 ar
    30   15   39 1
    31   15   16 ar
    32   16   26 ar
    33   16   17 1
    34   17   31 2
    35   18   19 1
    36   18   40 1
    37   18   41 1
    38   19   42 1
    39   19   43 1
    40   20   21 1
    41   20   45 1
    42   20   44 1
    43   21   46 1
    44   21   47 1
    45   22   30 2
    46   22   23 1
    47   23   25 1
    48   23   24 1
    49   23   48 1
    50   24   25 1
    51   24   49 1
    52   24   50 1
    53   25   51 1
    54   25   52 1
    55   26   27 ar
    56   26   32 1
    57   27   28 ar
    58   27   53 1
    59   28   54 1
@<TRIPOS>SUBSTRUCTURE
1 UNL1 1
@<TRIPOS>COMMENT
olaparib
PLANTSproteinTorsions
102
4661 103.9099
5386 78.9603
6210 76.8970
5890 162.5694
4461 110.6454
1390 112.9173
2824 255.9446
4339 220.3835
2732 47.2358
4792 8.3875
3407 205.4175
5134 48.4043
6916 195.9785
7370 86.9355
6038 138.9707
7225 105.7391
3592 50.4531
2064 48.1105
2488 92.1488
1253 288.6029
2069 295.5268
2569 326.3032
3058 141.0627
1748 139.0795
1162 284.0933
1509 14.5324
560 240.4880
1627 17.5292
1941 350.3920
3631 260.2008
2381 340.7321
4221 179.2016
4687 126.3650
6983 297.8592
6668 111.8032
7305 314.8986
8693 337.7564
8404 170.3969
9055 210.9692
7052 65.4405
4708 342.7618
2652 297.9001
4332 325.3973
3011 103.9016
2257 345.3590
2778 302.0964
2057 233.9347
192 29.5547
315 224.6908
1085 255.3640
1007 209.5402
1407 158.2337
4816 78.8268
3131 221.4686
4654 230.1358
5144 224.6844
117 270.2988
6 127.0084
259 46.4066
1979 103.1004
2609 99.2708
2623 299.4666
5910 127.9324
5937 319.1431
2062 177.7283
890 14.9845
5008 114.1996
8602 148.8335
8478 206.4808
8300 191.2516
7721 209.3448
8466 173.4694
7852 147.8988
5849 196.8748
6302 198.7967
7439 109.6710
6284 242.6654
6003 195.8773
7165 242.9184
7623 216.0416
8158 203.5036
8667 183.7371
9078 211.7641
8684 234.3299
7666 213.7219
4231 156.7613
1659 263.9968
489 223.6271
238 244.0946
46 155.2507
83 82.6556
254 139.1830
1066 251.5071
2112 165.4014
4047 250.4305
5402 217.9374
2544 39.5120
4670 41.8954
4426 239.2216
5656 261.9658
7040 224.1986
6282 123.4449
PLANTSmolcadARTstart hb
PLANTSmolcadARTstart HB
LINES
PLANTSmolcadARTstart HBCH
LINES
PLANTSmolcadARTstart HB-CHO
LINES
PLANTSmolcadARTend
PLANTSmolcadARTstart HB_WATER
LINES
PLANTSmolcadARTend

PLANTSmolcadARTend

