@<TRIPOS>MOLECULE
olaparib_entry_00001_conf_52
55 59 1
SMALL
NO_CHARGES


@<TRIPOS>ATOM
      1 N         -44.5399  -64.6787  -18.6077 N.am      1 UNL1        0.0000
      2 N         -46.1794  -66.3989  -17.5582 N.am      1 UNL1        0.0000
      3 N         -44.8268  -58.1624  -21.9342 N.2       1 UNL1        0.0000
      4 N         -44.8502  -56.8597  -22.0789 N.am      1 UNL1        0.0000
      5 C         -45.9777  -56.1359  -22.0393 C.2       1 UNL1        0.0000
      6 C         -47.1774  -56.7868  -21.8372 C.ar      1 UNL1        0.0000
      7 C         -48.3825  -56.0840  -21.8074 C.ar      1 UNL1        0.0000
      8 C         -49.5710  -56.7578  -21.6254 C.ar      1 UNL1        0.0000
      9 C         -49.4977  -58.1271  -21.4807 C.ar      1 UNL1        0.0000
     10 C         -48.3091  -58.8373  -21.5086 C.ar      1 UNL1        0.0000
     11 C         -47.1385  -58.1607  -21.6866 C.ar      1 UNL1        0.0000
     12 C         -45.9742  -58.8798  -21.7293 C.2       1 UNL1        0.0000
     13 C         -45.8033  -60.3114  -21.5182 C.3       1 UNL1        0.0000
     14 C         -45.4175  -60.5903  -20.1073 C.ar      1 UNL1        0.0000
     15 C         -44.8124  -61.8393  -19.8805 C.ar      1 UNL1        0.0000
     16 C         -44.4302  -62.1927  -18.6086 C.ar      1 UNL1        0.0000
     17 C         -43.7941  -63.5016  -18.3372 C.2       1 UNL1        0.0000
     18 C         -43.9586  -65.9592  -18.3635 C.3       1 UNL1        0.0000
     19 C         -44.9942  -67.0265  -18.0822 C.3       1 UNL1        0.0000
     20 C         -46.8751  -65.4527  -18.4371 C.3       1 UNL1        0.0000
     21 C         -45.8872  -64.5506  -19.1311 C.3       1 UNL1        0.0000
     22 C         -46.6630  -66.6626  -16.2734 C.2       1 UNL1        0.0000
     23 C         -46.0763  -67.5647  -15.2788 C.3       1 UNL1        0.0000
     24 C         -46.3866  -69.0350  -15.4469 C.3       1 UNL1        0.0000
     25 C         -46.9323  -68.2946  -14.3071 C.3       1 UNL1        0.0000
     26 C         -44.6066  -61.3790  -17.5146 C.ar      1 UNL1        0.0000
     27 C         -45.1990  -60.1567  -17.7378 C.ar      1 UNL1        0.0000
     28 C         -45.5911  -59.7934  -19.0341 C.ar      1 UNL1        0.0000
     29 O         -46.0203  -54.8862  -22.1746 O.2       1 UNL1        0.0000
     30 O         -47.7339  -66.0597  -15.9059 O.2       1 UNL1        0.0000
     31 O         -42.6313  -63.5976  -17.8818 O.2       1 UNL1        0.0000
     32 F         -44.2102  -61.7762  -16.2704 F         1 UNL1        0.0000
     33 H         -48.3841  -55.0583  -21.9210 H         1 UNL1        0.0000
     34 H         -50.4739  -56.2604  -21.5993 H         1 UNL1        0.0000
     35 H         -50.3760  -58.6508  -21.3447 H         1 UNL1        0.0000
     36 H         -48.3084  -59.8633  -21.3960 H         1 UNL1        0.0000
     37 H         -45.0373  -60.6748  -22.1711 H         1 UNL1        0.0000
     38 H         -46.7306  -60.8040  -21.7248 H         1 UNL1        0.0000
     39 H         -44.6562  -62.4888  -20.6668 H         1 UNL1        0.0000
     40 H         -43.3060  -65.8834  -17.5185 H         1 UNL1        0.0000
     41 H         -43.4287  -66.2475  -19.2479 H         1 UNL1        0.0000
     42 H         -44.6086  -67.7216  -17.3664 H         1 UNL1        0.0000
     43 H         -45.2297  -67.5501  -18.9855 H         1 UNL1        0.0000
     44 H         -47.5453  -64.8568  -17.8538 H         1 UNL1        0.0000
     45 H         -47.4185  -66.0025  -19.1770 H         1 UNL1        0.0000
     46 H         -46.2052  -63.5363  -19.0075 H         1 UNL1        0.0000
     47 H         -45.8594  -64.8371  -20.1609 H         1 UNL1        0.0000
     48 H         -45.2104  -66.9447  -15.1785 H         1 UNL1        0.0000
     49 H         -45.6191  -69.7649  -15.2933 H         1 UNL1        0.0000
     50 H         -46.8012  -69.6367  -16.2285 H         1 UNL1        0.0000
     51 H         -46.5663  -68.4930  -13.3213 H         1 UNL1        0.0000
     52 H         -47.9165  -68.1432  -13.9178 H         1 UNL1        0.0000
     53 H         -45.3542  -59.5074  -16.9500 H         1 UNL1        0.0000
     54 H         -46.0334  -58.8712  -19.1739 H         1 UNL1        0.0000
     55 H         -43.9969  -56.3896  -22.2231 H         1 UNL1        0.0000
@<TRIPOS>BOND
     1    1   18 1
     2    1   21 1
     3    1   17 am
     4    2   19 1
     5    2   20 1
     6    2   22 am
     7    3    4 1
     8    3   12 2
     9    4    5 am
    10    4   55 1
    11    5   29 2
    12    5    6 1
    13    6    7 ar
    14    6   11 ar
    15    7    8 ar
    16    7   33 1
    17    8   34 1
    18    8    9 ar
    19    9   10 ar
    20    9   35 1
    21   10   11 ar
    22   10   36 1
    23   11   12 1
    24   12   13 1
    25   13   37 1
    26   13   38 1
    27   13   14 1
    28   14   15 ar
    29   14   28 ar
    30   15   39 1
    31   15   16 ar
    32   16   26 ar
    33   16   17 1
    34   17   31 2
    35   18   19 1
    36   18   40 1
    37   18   41 1
    38   19   42 1
    39   19   43 1
    40   20   21 1
    41   20   45 1
    42   20   44 1
    43   21   46 1
    44   21   47 1
    45   22   30 2
    46   22   23 1
    47   23   25 1
    48   23   24 1
    49   23   48 1
    50   24   25 1
    51   24   49 1
    52   24   50 1
    53   25   51 1
    54   25   52 1
    55   26   27 ar
    56   26   32 1
    57   27   28 ar
    58   27   53 1
    59   28   54 1
@<TRIPOS>SUBSTRUCTURE
1 UNL1 1
@<TRIPOS>COMMENT
olaparib
PLANTSproteinTorsions
102
4661 58.2805
5386 21.3158
6210 301.0065
5890 301.9015
4461 196.3801
1390 138.4094
2824 54.1298
4339 149.1153
2732 118.0947
4792 25.1286
3407 350.6328
5134 23.0974
6916 164.1042
7370 15.0982
6038 195.0498
7225 186.0600
3592 331.5659
2064 57.7314
2488 74.6524
1253 185.5769
2069 140.5040
2569 302.6743
3058 130.3813
1748 260.3371
1162 156.2783
1509 11.2331
560 237.1954
1627 160.1473
1941 354.6479
3631 203.0836
2381 88.0383
4221 87.0151
4687 45.9972
6983 29.9778
6668 209.9629
7305 229.9539
8693 28.9425
8404 308.4225
9055 152.7890
7052 287.8000
4708 87.9957
2652 245.9350
4332 241.9322
3011 18.9376
2257 88.9470
2778 319.1174
2057 48.9788
192 218.9945
315 158.0069
1085 105.0288
1007 105.0514
1407 137.0730
4816 91.0809
3131 128.5458
4654 214.0627
5144 94.0932
117 265.1349
6 248.1676
259 138.1936
1979 196.2363
2609 140.2704
2623 141.3082
5910 115.3505
5937 45.3971
2062 35.3958
890 294.6987
5008 259.4912
8602 89.5298
8478 318.3019
8300 82.5799
7721 210.6329
8466 71.6830
7852 152.7268
5849 162.7772
6302 119.7961
7439 128.9186
6284 64.9427
6003 283.0435
7165 204.0467
7623 260.0719
8158 313.6428
8667 195.1802
9078 143.2294
8684 180.2905
7666 129.3402
4231 224.4033
1659 211.4584
489 80.5140
238 248.5715
46 242.6260
83 234.6553
254 203.7110
1066 269.3664
2112 132.7161
4047 158.7367
5402 208.7625
2544 196.8058
4670 177.8521
4426 243.8854
5656 111.8946
7040 57.9383
6282 239.9499
PLANTSmolcadARTstart hb
PLANTSmolcadARTstart HB
LINES
-47.7339 -66.0597 -15.9059 -47.292 -63.904 -15.412 0 255 0 5
-47.7339 -66.0597 -15.9059 -49.314 -65.007 -15.825 0 255 0 5
PLANTSmolcadARTstart HBCH
LINES
PLANTSmolcadARTstart HB-CHO
LINES
PLANTSmolcadARTend
PLANTSmolcadARTstart HB_WATER
LINES
PLANTSmolcadARTend

PLANTSmolcadARTend

