@<TRIPOS>MOLECULE
olaparib_entry_00001_conf_65_protein
256 154 102
SMALL
NO_CHARGES


@<TRIPOS>ATOM
      1 H           1.4272  -83.3547    1.1626 H        28 GLY28      -0.0894
      2 N           1.9710  -83.9720    1.7370 N.4      28 GLY28       0.3838
      3 H2          2.9441  -83.7740    1.5924 H        28 GLY28      -0.0894
      4 H3          1.7897  -84.9180    1.4539 H        28 GLY28      -0.0894
      5 HG1        -6.5520  -77.7812    5.9145 H        31 THR31       0.2099
      6 OG1        -5.5490  -77.8520    5.8930 O.3      31 THR31      -0.3897
      7 HH         -3.8038  -67.2372    8.3671 H        38 TYR38       0.2921
      8 OH         -4.6290  -67.0170    8.8830 O.3      38 TYR38      -0.5068
      9 HH        -15.9849  -63.3708    6.6674 H        39 TYR39       0.2921
     10 OH        -15.2560  -63.1550    7.3150 O.3      39 TYR39      -0.5068
     11 HH         -2.6195  -58.5157    1.4086 H        55 TYR55       0.2921
     12 OH         -2.4450  -59.4310    1.7660 O.3      55 TYR55      -0.5068
     13 HG1        -8.2438  -53.7457  -11.1454 H        60 THR60       0.2099
     14 OG1        -8.4490  -52.9250  -11.6880 O.3      60 THR60      -0.3897
     15 HG1        -8.8647  -49.1506   -4.4219 H        62 THR62       0.2099
     16 OG1        -9.2280  -49.6990   -5.1820 O.3      62 THR62      -0.3897
     17 HH         -8.9796  -43.1022    1.4399 H        64 TYR64       0.2921
     18 OH         -9.5040  -43.9480    1.3590 O.3      64 TYR64      -0.5068
     19 HG         -0.7159  -47.4809   -4.9439 H        65 SER65       0.2095
     20 OG         -1.6780  -47.2380   -4.8310 O.3      65 SER65      -0.3927
     21 HG1        -2.7947  -50.8848    1.2126 H        70 THR70       0.2099
     22 OG1        -2.7710  -50.8080    2.2150 O.3      70 THR70      -0.3897
     23 HG1        -7.5794  -42.3121   -1.3672 H        76 THR76       0.2099
     24 OG1        -7.4980  -42.0730   -2.3400 O.3      76 THR76      -0.3897
     25 HG         -7.8550  -34.5754    3.4340 H        81 SER81       0.2095
     26 OG         -7.2260  -35.3370    3.5860 O.3      81 SER81      -0.3927
     27 HG        -18.1696  -39.3368   13.3726 H        85 SER85       0.2095
     28 OG        -18.4230  -39.3210   12.4060 O.3      85 SER85      -0.3927
     29 HG        -21.2166  -41.6616   13.2016 H        87 SER87       0.2095
     30 OG        -21.7540  -41.4260   14.0100 O.3      87 SER87      -0.3927
     31 HG1       -21.4252  -35.6975    7.8873 H        89 THR89       0.2099
     32 OG1       -21.9430  -36.3830    7.3650 O.3      89 THR89      -0.3897
     33 HG1       -29.3643  -33.3917   13.9731 H        94 THR94       0.2099
     34 OG1       -29.7610  -34.2720   13.6920 O.3      94 THR94      -0.3897
     35 HG1       -31.0105  -22.0848   -1.6455 H       106 THR106      0.2099
     36 OG1       -31.9840  -22.2340   -1.4400 O.3     106 THR106     -0.3897
     37 HG1       -25.5870  -38.3895   -8.8029 H       118 THR118      0.2099
     38 OG1       -25.4270  -37.7120   -8.0780 O.3     118 THR118     -0.3897
     39 HG        -28.0010  -42.6976   -5.8840 H       121 SER121      0.2095
     40 OG        -28.0170  -43.6970   -5.8890 O.3     121 SER121     -0.3927
     41 HG        -21.9342  -50.9440  -12.9287 H       126 SER126      0.2095
     42 OG        -21.9940  -50.0310  -12.5270 O.3     126 SER126     -0.3927
     43 HG1       -21.0906  -56.6030   -6.3271 H       129 THR129      0.2099
     44 OG1       -21.5190  -57.3710   -6.8150 O.3     129 THR129     -0.3897
     45 HH        -16.8220  -57.9424   -5.3155 H       130 TYR130      0.2921
     46 OH        -16.7630  -58.6500   -6.0170 O.3     130 TYR130     -0.5068
     47 HG        -28.8455  -66.7818   -4.6451 H       132 SER132      0.2095
     48 OG        -28.2430  -67.4690   -4.2420 O.3     132 SER132     -0.3927
     49 HH        -18.5207  -70.0252  -10.7320 H       136 TYR136      0.2921
     50 OH        -18.4010  -69.8190   -9.7630 O.3     136 TYR136     -0.5068
     51 HG        -22.1563  -64.4650  -12.3917 H       138 SER138      0.2095
     52 OG        -21.7000  -65.3460  -12.2760 O.3     138 SER138     -0.3927
     53 HG        -25.2776  -62.1857  -10.1068 H       141 SER141      0.2095
     54 OG        -24.2850  -62.2830  -10.1630 O.3     141 SER141     -0.3927
     55 HG        -28.5624  -65.5546  -16.7447 H       143 SER143      0.2095
     56 OG        -27.8490  -64.9650  -17.1220 O.3     143 SER143     -0.3927
     57 HG        -35.0127  -68.0328   -8.8662 H       146 SER146      0.2095
     58 OG        -35.5350  -67.3800   -9.4140 O.3     146 SER146     -0.3927
     59 HH        -28.2237  -70.6507   -9.6950 H       147 TYR147      0.2921
     60 OH        -28.4260  -70.4670   -8.7350 O.3     147 TYR147     -0.5068
     61 HH        -37.0062  -62.5114   -1.8980 H       148 TYR148      0.2921
     62 OH        -36.4560  -61.7190   -1.6440 O.3     148 TYR148     -0.5068
     63 HG1       -26.0157  -58.5171   -7.6498 H       149 THR149      0.2099
     64 OG1       -26.1570  -58.8760   -6.7210 O.3     149 THR149     -0.3897
     65 HG        -20.7854  -67.4917   -0.2355 H       154 SER154      0.2095
     66 OG        -20.0840  -66.8360    0.0410 O.3     154 SER154     -0.3927
     67 HZ1       -20.6142  -72.6394    1.8133 H       157 LYS157     -0.0901
     68 NZ        -21.3030  -73.3640    1.8070 N.4     157 LYS157      0.3781
     69 HZ2       -21.7978  -73.3477    0.9386 H       157 LYS157     -0.0901
     70 HZ3       -21.9446  -73.2237    2.5603 H       157 LYS157     -0.0901
     71 HG1       -14.9115  -67.0623   11.9510 H       161 THR161      0.2099
     72 OG1       -13.9700  -67.3810   12.1020 O.3     161 THR161     -0.3897
     73 HG1       -10.1789  -63.5233   11.2861 H       165 THR165      0.2099
     74 OG1        -9.5520  -63.8260   10.5610 O.3     165 THR165     -0.3897
     75 HZ1        -6.4837  -62.2266   13.9003 H       166 LYS166     -0.0901
     76 NZ         -7.2730  -62.7880   14.1460 N.4     166 LYS166      0.3781
     77 HZ2        -7.3235  -62.8782   15.1403 H       166 LYS166     -0.0901
     78 HZ3        -7.1821  -63.6927   13.7314 H       166 LYS166     -0.0901
     79 HZ1       -18.8835  -68.5738   23.4668 H       168 LYS168     -0.0901
     80 NZ        -18.1320  -68.0390   23.8530 N.4     168 LYS168      0.3781
     81 HZ2       -17.7501  -68.5193   24.6421 H       168 LYS168     -0.0901
     82 HZ3       -18.4713  -67.1433   24.1381 H       168 LYS168     -0.0901
     83 HZ1       -15.8742  -76.1637   21.4024 H       169 LYS169     -0.0901
     84 NZ        -15.7760  -75.9460   20.4320 N.4     169 LYS169      0.3781
     85 HZ2       -16.5554  -75.3966   20.1311 H       169 LYS169     -0.0901
     86 HZ3       -15.7383  -76.7923   19.9013 H       169 LYS169     -0.0901
     87 HZ1       -42.4967  -49.7573   31.9741 H       186 LYS186     -0.0901
     88 NZ        -42.5640  -49.1260   31.2020 N.4     186 LYS186      0.3781
     89 HZ2       -41.8555  -48.4248   31.2792 H       186 LYS186     -0.0901
     90 HZ3       -43.4650  -48.6934   31.2004 H       186 LYS186     -0.0901
     91 HG1       -40.7970  -43.4482   12.6566 H       194 THR194      0.2099
     92 OG1       -41.7230  -43.2040   12.3500 O.3     194 THR194     -0.3897
     93 HG1       -42.2206  -53.9833    3.4383 H       206 THR206      0.2099
     94 OG1       -41.9280  -54.7860    2.9080 O.3     206 THR206     -0.3897
     95 HZ1       -44.7737  -59.8740   -6.5660 H       211 LYS211     -0.0901
     96 NZ        -45.0200  -60.4690   -5.8010 N.4     211 LYS211      0.3781
     97 HZ2       -45.1147  -61.4097   -6.1255 H       211 LYS211     -0.0901
     98 HZ3       -45.8848  -60.1638   -5.4044 H       211 LYS211     -0.0901
     99 HG1       -36.2011  -64.5239    0.2355 H       212 THR212      0.2099
    100 OG1       -37.0600  -64.5640    0.7570 O.3     212 THR212     -0.3897
    101 HG        -39.1721  -71.2695   -4.0444 H       213 SER213      0.2095
    102 OG        -39.6210  -70.4680   -4.4390 O.3     213 SER213     -0.3927
    103 HZ1       -40.5862  -71.1991   -6.6784 H       215 LYS215     -0.0901
    104 NZ        -40.7140  -72.0550   -7.1780 N.4     215 LYS215      0.3781
    105 HZ2       -39.9222  -72.6473   -7.0354 H       215 LYS215     -0.0901
    106 HZ3       -40.8180  -71.8618   -8.1529 H       215 LYS215     -0.0901
    107 HG1       -38.4921  -62.5348   -4.7561 H       221 THR221      0.2099
    108 OG1       -37.7410  -62.2150   -5.3430 O.3     221 THR221     -0.3897
    109 HZ1       -42.8597  -69.5046   -8.9274 H       222 LYS222     -0.0901
    110 NZ        -42.2670  -69.5280   -8.1230 N.4     222 LYS222      0.3781
    111 HZ2       -41.3134  -69.6140   -8.4107 H       222 LYS222     -0.0901
    112 HZ3       -42.5143  -70.3056   -7.5464 H       222 LYS222     -0.0901
    113 HH        -50.5834  -60.9182  -21.5171 H       242 TYR242      0.2921
    114 OH        -51.5270  -60.6600  -21.7160 O.3     242 TYR242     -0.5068
    115 HZ1       -67.8584  -50.6567  -20.5968 H       248 LYS248     -0.0901
    116 NZ        -68.1830  -51.5330  -20.2430 N.4     248 LYS248      0.3781
    117 HZ2       -67.7771  -52.2788  -20.7699 H       248 LYS248     -0.0901
    118 HZ3       -69.1790  -51.5748  -20.3149 H       248 LYS248     -0.0901
    119 HZ1       -65.1167  -47.4567  -13.7385 H       251 LYS251     -0.0901
    120 NZ        -64.3690  -47.5440  -13.0810 N.4     251 LYS251      0.3781
    121 HZ2       -64.5862  -48.2620  -12.4202 H       251 LYS251     -0.0901
    122 HZ3       -64.2412  -46.6766  -12.6019 H       251 LYS251     -0.0901
    123 HZ1       -62.7067  -61.3649  -14.5023 H       253 LYS253     -0.0901
    124 NZ        -61.7340  -61.4150  -14.2790 N.4     253 LYS253      0.3781
    125 HZ2       -61.2351  -60.7188  -14.7947 H       253 LYS253     -0.0901
    126 HZ3       -61.3829  -62.3211  -14.5121 H       253 LYS253     -0.0901
    127 HH        -68.7184  -51.8479  -11.5728 H       254 TYR254      0.2921
    128 OH        -67.9490  -51.2120  -11.6040 O.3     254 TYR254     -0.5068
    129 HH        -65.0427  -50.4041    3.3043 H       262 TYR262      0.2921
    130 OH        -65.3490  -51.3490    3.4010 O.3     262 TYR262     -0.5068
    131 HG        -64.3872  -63.4426   -2.3302 H       265 SER265      0.2095
    132 OG        -65.2160  -63.5150   -2.8830 O.3     265 SER265     -0.3927
    133 HH        -58.2339  -61.2913    0.9245 H       275 TYR275      0.2921
    134 OH        -58.7510  -61.6620    1.6930 O.3     275 TYR275     -0.5068
    135 HG        -66.6091  -63.7160    4.9416 H       283 SER283      0.2095
    136 OG        -66.4350  -64.2560    4.1190 O.3     283 SER283     -0.3927
    137 HZ1       -62.0474  -47.0215  -23.3500 H       317 LYS317     -0.0901
    138 NZ        -62.9320  -46.6960  -23.6840 N.4     317 LYS317      0.3781
    139 HZ2       -63.6019  -47.4363  -23.6339 H       317 LYS317     -0.0901
    140 HZ3       -62.8407  -46.3901  -24.6307 H       317 LYS317     -0.0901
    141 HG1       -58.7044  -41.5803  -28.5919 H       322 THR322      0.2099
    142 OG1       -58.6530  -41.8510  -29.5590 O.3     322 THR322     -0.3897
    143 HG1       -51.4976  -46.3403  -21.3935 H       331 THR331      0.2099
    144 OG1       -50.7660  -45.8310  -20.9280 O.3     331 THR331     -0.3897
    145 HE2       -51.1589  -42.7596   -9.3930 H       339 GLU339      0.2951
    146 OE2       -51.4690  -42.4210   -8.5640 O.3     339 GLU339     -0.4806
    147 HG1       -46.5862  -47.2212   -6.8573 H       340 THR340      0.2099
    148 OG1       -46.5450  -46.8770   -5.9140 O.3     340 THR340     -0.3897
    149 HZ1       -43.7172  -34.2751   -5.2722 H       342 LYS342     -0.0901
    150 NZ        -44.2730  -34.8380   -5.8830 N.4     342 LYS342      0.3781
    151 HZ2       -43.6780  -35.4058   -6.4511 H       342 LYS342     -0.0901
    152 HZ3       -44.8306  -34.2493   -6.4669 H       342 LYS342     -0.0901
    153 HG        -35.5944  -37.9348    7.5027 H       353 SER353      0.2095
    154 OG        -34.8470  -38.0790    6.8560 O.3     353 SER353     -0.3927
    155 HH        -28.9498  -38.9513    7.8353 H       355 TYR355      0.2921
    156 OH        -29.4390  -38.9590    6.9650 O.3     355 TYR355     -0.5068
    157 HZ1       -37.4417  -30.0892   -9.0192 H       360 LYS360     -0.0901
    158 NZ        -37.0810  -30.0700   -8.0870 N.4     360 LYS360      0.3781
    159 HZ2       -37.1366  -29.1399   -7.7257 H       360 LYS360     -0.0901
    160 HZ3       -36.1282  -30.3724   -8.0899 H       360 LYS360     -0.0901
    161 HH        -31.7220  -40.2161  -15.6115 H       373 TYR373      0.2921
    162 OH        -31.5330  -40.6670  -14.7410 O.3     373 TYR373     -0.5068
    163 HH        -39.0352  -49.9444    2.1767 H       385 TYR385      0.2921
    164 OH        -38.5070  -49.7260    2.9980 O.3     385 TYR385     -0.5068
    165 HG        -53.4035  -52.9577   21.9153 H       394 SER394      0.2095
    166 OG        -52.8560  -53.6470   22.3880 O.3     394 SER394     -0.3927
    167 HZ1       -56.1203  -45.2861   22.0798 H       396 LYS396     -0.0901
    168 NZ        -56.8890  -45.1950   21.4480 N.4     396 LYS396      0.3781
    169 HZ2       -56.6894  -44.4813   20.7767 H       396 LYS396     -0.0901
    170 HZ3       -57.7141  -44.9539   21.9571 H       396 LYS396     -0.0901
    171 HG        -64.0938  -49.1842   18.7879 H       399 SER399      0.2095
    172 OG        -64.8050  -49.1850   19.4900 O.3     399 SER399     -0.3927
    173 HH        -63.4057  -54.2810   15.3185 H       402 TYR402      0.2921
    174 OH        -63.4400  -54.9110   16.0920 O.3     402 TYR402     -0.5068
    175 HG        -56.7979  -61.2350   21.4125 H       403 SER403      0.2095
    176 OG        -56.3060  -60.7630   20.6820 O.3     403 SER403     -0.3927
    177 HH        -46.3727  -57.6112   17.2605 H       404 TYR404      0.2921
    178 OH        -47.2120  -57.3120   16.8100 O.3     404 TYR404     -0.5068
    179 HG1       -61.3098  -64.8876    6.6669 H       411 THR411      0.2099
    180 OG1       -61.0480  -63.9800    7.0130 O.3     411 THR411     -0.3897
    181 HG        -65.2729  -60.6105   10.3852 H       412 SER412      0.2095
    182 OG        -65.0720  -59.6800   10.0830 O.3     412 SER412     -0.3927
    183 HH        -62.9624  -52.2181   16.1219 H       417 TYR417      0.2921
    184 OH        -63.8670  -52.2620   15.7010 O.3     417 TYR417     -0.5068
    185 HG        -26.6424  -62.4563    8.0468 H       455 SER455      0.2095
    186 OG        -26.5990  -63.2690    8.6260 O.3     455 SER455     -0.3927
    187 HZ1       -11.1396  -54.3787    8.3307 H       468 LYS468     -0.0901
    188 NZ        -11.4800  -54.5700    7.4110 N.4     468 LYS468      0.3781
    189 HZ2       -11.6214  -55.5536    7.3031 H       468 LYS468     -0.0901
    190 HZ3       -10.8169  -54.2505    6.7353 H       468 LYS468     -0.0901
    191 HZ1       -10.5355  -44.2732   14.4308 H       473 LYS473     -0.0901
    192 NZ        -11.2340  -43.8560   13.8500 N.4     473 LYS473      0.3781
    193 HZ2       -10.8373  -43.0888   13.3468 H       473 LYS473     -0.0901
    194 HZ3       -11.9915  -43.5307   14.4156 H       473 LYS473     -0.0901
    195 HH        -22.4242  -47.8192   16.4445 H       475 TYR475      0.2921
    196 OH        -22.0570  -48.1150   15.5640 O.3     475 TYR475     -0.5068
    197 HG1       -12.4411  -48.8620   20.2652 H       476 THR476      0.2099
    198 OG1       -13.0660  -49.5060   19.8110 O.3     476 THR476     -0.3897
    199 HG        -15.8526  -50.2819   23.4584 H       477 SER477      0.2095
    200 OG        -15.6220  -50.5540   22.5250 O.3     477 SER477     -0.3927
    201 HZ1       -19.3256  -46.3688   32.7196 H       485 LYS485     -0.0901
    202 NZ        -20.1320  -46.7880   32.3030 N.4     485 LYS485      0.3781
    203 HZ2       -20.5820  -46.1258   31.7047 H       485 LYS485     -0.0901
    204 HZ3       -20.7665  -47.0774   33.0187 H       485 LYS485     -0.0901
    205 HZ1       -26.4954  -42.3860   22.8313 H       511 LYS511     -0.0901
    206 NZ        -26.7900  -43.3340   22.7180 N.4     511 LYS511      0.3781
    207 HZ2       -26.8668  -43.5477   21.7448 H       511 LYS511     -0.0901
    208 HZ3       -27.6765  -43.4649   23.1611 H       511 LYS511     -0.0901
    209 HG        -32.6495  -43.3428   16.3351 H       516 SER516      0.2095
    210 OG        -31.9800  -42.6720   16.0180 O.3     516 SER516     -0.3927
    211 HG        -35.0382  -47.0919    1.5637 H       530 SER530      0.2095
    212 OG        -34.2320  -47.4470    1.0930 O.3     530 SER530     -0.3927
    213 HZ1       -26.6645  -48.4363  -10.2333 H       532 LYS532     -0.0901
    214 NZ        -27.6550  -48.3070  -10.2110 N.4     532 LYS532      0.3781
    215 HZ2       -28.0625  -48.6947  -11.0366 H       532 LYS532     -0.0901
    216 HZ3       -27.8644  -47.3313  -10.1600 H       532 LYS532     -0.0901
    217 HG        -35.6480  -43.6367  -19.5437 H       541 SER541      0.2095
    218 OG        -35.8170  -43.9740  -18.6180 O.3     541 SER541     -0.3927
    219 HH        -39.8555  -49.6365  -20.5440 H       544 TYR544      0.2921
    220 OH        -39.2750  -49.0250  -21.0780 O.3     544 TYR544     -0.5068
    221 HZ1       -38.0756  -39.2505  -26.1216 H       546 LYS546     -0.0901
    222 NZ        -38.9760  -38.9140  -25.8470 N.4     546 LYS546      0.3781
    223 HZ2       -39.6847  -39.5159  -26.2141 H       546 LYS546     -0.0901
    224 HZ3       -39.1089  -37.9879  -26.1983 H       546 LYS546     -0.0901
    225 HG        -44.3796  -39.6772  -23.4099 H       548 SER548      0.2095
    226 OG        -44.5870  -39.4220  -24.3530 O.3     548 SER548     -0.3927
    227 HG1       -43.3280  -42.4255  -21.8468 H       549 THR549      0.2099
    228 OG1       -43.1030  -42.0380  -20.9460 O.3     549 THR549     -0.3897
    229 HZ1       -45.1206  -34.5883  -14.0845 H       560 LYS560     -0.0901
    230 NZ        -44.3980  -33.9200  -13.9130 N.4     560 LYS560      0.3781
    231 HZ2       -44.1772  -33.4413  -14.7619 H       560 LYS560     -0.0901
    232 HZ3       -43.5835  -34.3871  -13.5691 H       560 LYS560     -0.0901
    233 HG1       -50.6036  -34.0933   -7.3556 H       561 THR561      0.2099
    234 OG1       -50.0060  -33.4230   -7.8080 O.3     561 THR561     -0.3897
    235 HG1       -51.5167  -37.2292   -0.1296 H       563 THR563      0.2099
    236 OG1       -51.2400  -36.2740   -0.2790 O.3     563 THR563     -0.3897
    237 HZ1       -54.6235  -35.9332    6.1493 H       565 LYS565     -0.0901
    238 NZ        -55.2080  -35.3570    5.5790 N.4     565 LYS565      0.3781
    239 HZ2       -55.7225  -34.7246    6.1575 H       565 LYS565     -0.0901
    240 HZ3       -55.8438  -35.9319    5.0638 H       565 LYS565     -0.0901
    241 HZ1       -51.4983  -34.7951   -5.7508 H       566 LYS566     -0.0901
    242 NZ        -52.4230  -34.8340   -6.1280 N.4     566 LYS566      0.3781
    243 HZ2       -52.4477  -35.4847   -6.8868 H       566 LYS566     -0.0901
    244 HZ3       -52.6896  -33.9279   -6.4553 H       566 LYS566     -0.0901
    245 HG1       -61.2183  -41.0904    2.8746 H       572 THR572      0.2099
    246 OG1       -61.3190  -41.3360    1.9050 O.3     572 THR572     -0.3897
    247 HZ1       -71.6930  -41.8746    1.1651 H       573 LYS573     -0.0901
    248 NZ        -71.0950  -42.6030    0.8330 N.4     573 LYS573      0.3781
    249 HZ2       -70.5733  -42.2752    0.0462 H       573 LYS573     -0.0901
    250 HZ3       -71.6461  -43.3926    0.5649 H       573 LYS573     -0.0901
    251 HG1       -64.0640  -40.8450    5.5252 H       574 THR574      0.2099
    252 OG1       -64.6450  -40.3960    6.2120 O.3     574 THR574     -0.3897
    253 HH        -50.5137  -37.7818   13.0775 H       577 TYR577      0.2921
    254 OH        -50.9160  -36.9720   12.6540 O.3     577 TYR577     -0.5068
    255 HG        -50.1616  -37.3235   10.4477 H       579 SER579      0.2095
    256 OG        -49.7460  -38.1280   10.0250 O.3     579 SER579     -0.3927
@<TRIPOS>BOND
     1  142  141 1
     2  224  222 1
     3  221  222 1
     4  223  222 1
     5  139  138 1
     6  226  225 1
     7  140  138 1
     8  138  137 1
     9  114  113 1
    10  219  220 1
    11  228  227 1
    12  143  144 1
    13  118  116 1
    14  115  116 1
    15  117  116 1
    16  218  217 1
    17   56   55 1
    18  126  124 1
    19  162  161 1
    20  229  230 1
    21  125  124 1
    22  123  124 1
    23  232  230 1
    24  230  231 1
    25  122  120 1
    26  120  119 1
    27  120  121 1
    28   42   41 1
    29  127  128 1
    30   52   51 1
    31   14   13 1
    32  216  214 1
    33  215  214 1
    34  214  213 1
    35   54   53 1
    36   50   49 1
    37   58   57 1
    38  159  158 1
    39   59   60 1
    40  112  110 1
    41  146  145 1
    42  111  110 1
    43  160  158 1
    44  105  104 1
    45  233  234 1
    46  110  109 1
    47  158  157 1
    48   38   37 1
    49  104  103 1
    50  104  106 1
    51   43   44 1
    52  241  242 1
    53  152  150 1
    54   63   64 1
    55  147  148 1
    56   97   96 1
    57  244  242 1
    58  107  108 1
    59  242  243 1
    60   15   16 1
    61   46   45 1
    62   40   39 1
    63  150  149 1
    64  150  151 1
    65   95   96 1
    66   96   98 1
    67   20   19 1
    68  102  101 1
    69   48   47 1
    70  131  132 1
    71   23   24 1
    72   61   62 1
    73   36   35 1
    74   65   66 1
    75  236  235 1
    76  250  248 1
    77  247  248 1
    78  133  134 1
    79  100   99 1
    80  248  249 1
    81   67   68 1
    82  212  211 1
    83    3    2 1
    84    1    2 1
    85   18   17 1
    86    4    2 1
    87   11   12 1
    88   68   69 1
    89   68   70 1
    90  246  245 1
    91   21   22 1
    92  163  164 1
    93   94   93 1
    94   25   26 1
    95  130  129 1
    96  136  135 1
    97  239  238 1
    98  238  237 1
    99  238  240 1
   100  251  252 1
   101    6    5 1
   102  153  154 1
   103  155  156 1
   104  190  188 1
   105  180  179 1
   106    9   10 1
   107   32   31 1
   108  188  189 1
   109  188  187 1
   110    7    8 1
   111  186  185 1
   112   73   74 1
   113  256  255 1
   114  182  181 1
   115   27   28 1
   116   72   71 1
   117   92   91 1
   118  254  253 1
   119   33   34 1
   120  191  192 1
   121   75   76 1
   122  192  194 1
   123  192  193 1
   124   29   30 1
   125   77   76 1
   126   76   78 1
   127  195  196 1
   128  184  183 1
   129  210  209 1
   130  174  173 1
   131  178  177 1
   132  171  172 1
   133  197  198 1
   134   86   84 1
   135   83   84 1
   136   84   85 1
   137  176  175 1
   138  167  168 1
   139  168  170 1
   140  168  169 1
   141  199  200 1
   142  165  166 1
   143  205  206 1
   144  208  206 1
   145  206  207 1
   146   82   80 1
   147   81   80 1
   148   80   79 1
   149   89   88 1
   150   88   87 1
   151   88   90 1
   152  203  202 1
   153  204  202 1
   154  202  201 1
@<TRIPOS>SUBSTRUCTURE
28 GLY28 1
31 THR31 5
38 TYR38 7
39 TYR39 9
55 TYR55 11
60 THR60 13
62 THR62 15
64 TYR64 17
65 SER65 19
70 THR70 21
76 THR76 23
81 SER81 25
85 SER85 27
87 SER87 29
89 THR89 31
94 THR94 33
106 THR106 35
118 THR118 37
121 SER121 39
126 SER126 41
129 THR129 43
130 TYR130 45
132 SER132 47
136 TYR136 49
138 SER138 51
141 SER141 53
143 SER143 55
146 SER146 57
147 TYR147 59
148 TYR148 61
149 THR149 63
154 SER154 65
157 LYS157 67
161 THR161 71
165 THR165 73
166 LYS166 75
168 LYS168 79
169 LYS169 83
186 LYS186 87
194 THR194 91
206 THR206 93
211 LYS211 95
212 THR212 99
213 SER213 101
215 LYS215 103
221 THR221 107
222 LYS222 109
242 TYR242 113
248 LYS248 115
251 LYS251 119
253 LYS253 123
254 TYR254 127
262 TYR262 129
265 SER265 131
275 TYR275 133
283 SER283 135
317 LYS317 137
322 THR322 141
331 THR331 143
339 GLU339 145
340 THR340 147
342 LYS342 149
353 SER353 153
355 TYR355 155
360 LYS360 157
373 TYR373 161
385 TYR385 163
394 SER394 165
396 LYS396 167
399 SER399 171
402 TYR402 173
403 SER403 175
404 TYR404 177
411 THR411 179
412 SER412 181
417 TYR417 183
455 SER455 185
468 LYS468 187
473 LYS473 191
475 TYR475 195
476 THR476 197
477 SER477 199
485 LYS485 201
511 LYS511 205
516 SER516 209
530 SER530 211
532 LYS532 213
541 SER541 217
544 TYR544 219
546 LYS546 221
548 SER548 225
549 THR549 227
560 LYS560 229
561 THR561 233
563 THR563 235
565 LYS565 237
566 LYS566 241
572 THR572 245
573 LYS573 247
574 THR574 251
577 TYR577 253
579 SER579 255
@<TRIPOS>COMMENT
