@<TRIPOS>MOLECULE
olaparib_entry_00001_conf_98
55 59 1
SMALL
NO_CHARGES


@<TRIPOS>ATOM
      1 N         -17.1571  -41.1183   -3.5975 N.am      1 UNL1        0.0000
      2 N         -18.4668  -39.7561   -5.3800 N.am      1 UNL1        0.0000
      3 N         -18.8623  -39.2531    3.1640 N.2       1 UNL1        0.0000
      4 N         -19.7103  -38.2911    3.4360 N.am      1 UNL1        0.0000
      5 C         -20.0321  -37.3261    2.5630 C.2       1 UNL1        0.0000
      6 C         -19.4457  -37.3387    1.3141 C.ar      1 UNL1        0.0000
      7 C         -19.7300  -36.3470    0.3745 C.ar      1 UNL1        0.0000
      8 C         -19.1161  -36.3678   -0.8593 C.ar      1 UNL1        0.0000
      9 C         -18.2299  -37.3965   -1.0996 C.ar      1 UNL1        0.0000
     10 C         -17.9381  -38.3868   -0.1765 C.ar      1 UNL1        0.0000
     11 C         -18.5530  -38.3585    1.0404 C.ar      1 UNL1        0.0000
     12 C         -18.2401  -39.3350    1.9477 C.2       1 UNL1        0.0000
     13 C         -17.3721  -40.4887    1.7507 C.3       1 UNL1        0.0000
     14 C         -17.9634  -41.4250    0.7552 C.ar      1 UNL1        0.0000
     15 C         -17.3369  -41.4453   -0.5036 C.ar      1 UNL1        0.0000
     16 C         -17.8168  -42.2702   -1.4926 C.ar      1 UNL1        0.0000
     17 C         -17.1813  -42.3115   -2.8290 C.2       1 UNL1        0.0000
     18 C         -16.5489  -41.1177   -4.8887 C.3       1 UNL1        0.0000
     19 C         -17.1250  -40.0597   -5.8050 C.3       1 UNL1        0.0000
     20 C         -18.6266  -39.1874   -4.0372 C.3       1 UNL1        0.0000
     21 C         -17.7563  -39.9170   -3.0465 C.3       1 UNL1        0.0000
     22 C         -19.5814  -39.9852   -6.1920 C.2       1 UNL1        0.0000
     23 C         -19.5863  -40.5563   -7.5413 C.3       1 UNL1        0.0000
     24 C         -20.1150  -39.6638   -8.6414 C.3       1 UNL1        0.0000
     25 C         -20.8627  -40.8580   -8.2410 C.3       1 UNL1        0.0000
     26 C         -18.8999  -43.0997   -1.3233 C.ar      1 UNL1        0.0000
     27 C         -19.5124  -43.0789   -0.0907 C.ar      1 UNL1        0.0000
     28 C         -19.0260  -42.2378    0.9203 C.ar      1 UNL1        0.0000
     29 O         -20.8437  -36.3964    2.8049 O.2       1 UNL1        0.0000
     30 O         -20.7330  -39.6691   -5.7237 O.2       1 UNL1        0.0000
     31 O         -16.6709  -43.3566   -3.2939 O.2       1 UNL1        0.0000
     32 F         -19.3390  -43.9004   -2.3376 F         1 UNL1        0.0000
     33 H         -20.4012  -35.5973    0.6032 H         1 UNL1        0.0000
     34 H         -19.3103  -35.6464   -1.5701 H         1 UNL1        0.0000
     35 H         -17.7585  -37.4299   -2.0165 H         1 UNL1        0.0000
     36 H         -17.2658  -39.1357   -0.4056 H         1 UNL1        0.0000
     37 H         -17.2472  -40.9988    2.6830 H         1 UNL1        0.0000
     38 H         -16.4254  -40.1500    1.3840 H         1 UNL1        0.0000
     39 H         -16.5194  -40.8423   -0.6844 H         1 UNL1        0.0000
     40 H         -16.6974  -42.0779   -5.3376 H         1 UNL1        0.0000
     41 H         -15.5092  -40.8996   -4.7561 H         1 UNL1        0.0000
     42 H         -17.1399  -40.4245   -6.8104 H         1 UNL1        0.0000
     43 H         -16.5221  -39.1764   -5.7629 H         1 UNL1        0.0000
     44 H         -19.6498  -39.2744   -3.7369 H         1 UNL1        0.0000
     45 H         -18.3347  -38.1582   -4.0599 H         1 UNL1        0.0000
     46 H         -18.3548  -40.1915   -2.2030 H         1 UNL1        0.0000
     47 H         -16.9598  -39.2582   -2.7729 H         1 UNL1        0.0000
     48 H         -18.7036  -41.1259   -7.3394 H         1 UNL1        0.0000
     49 H         -19.6214  -39.6344   -9.5904 H         1 UNL1        0.0000
     50 H         -20.3411  -38.6215   -8.7276 H         1 UNL1        0.0000
     51 H         -20.9195  -41.6955   -8.9046 H         1 UNL1        0.0000
     52 H         -21.8666  -41.0369   -7.9195 H         1 UNL1        0.0000
     53 H         -20.3301  -43.6833    0.0891 H         1 UNL1        0.0000
     54 H         -19.5039  -42.2412    1.8353 H         1 UNL1        0.0000
     55 H         -20.1322  -38.2771    4.3257 H         1 UNL1        0.0000
@<TRIPOS>BOND
     1    1   18 1
     2    1   21 1
     3    1   17 am
     4    2   19 1
     5    2   20 1
     6    2   22 am
     7    3    4 1
     8    3   12 2
     9    4    5 am
    10    4   55 1
    11    5   29 2
    12    5    6 1
    13    6    7 ar
    14    6   11 ar
    15    7    8 ar
    16    7   33 1
    17    8   34 1
    18    8    9 ar
    19    9   10 ar
    20    9   35 1
    21   10   11 ar
    22   10   36 1
    23   11   12 1
    24   12   13 1
    25   13   37 1
    26   13   38 1
    27   13   14 1
    28   14   15 ar
    29   14   28 ar
    30   15   39 1
    31   15   16 ar
    32   16   26 ar
    33   16   17 1
    34   17   31 2
    35   18   19 1
    36   18   40 1
    37   18   41 1
    38   19   42 1
    39   19   43 1
    40   20   21 1
    41   20   45 1
    42   20   44 1
    43   21   46 1
    44   21   47 1
    45   22   30 2
    46   22   23 1
    47   23   25 1
    48   23   24 1
    49   23   48 1
    50   24   25 1
    51   24   49 1
    52   24   50 1
    53   25   51 1
    54   25   52 1
    55   26   27 ar
    56   26   32 1
    57   27   28 ar
    58   27   53 1
    59   28   54 1
@<TRIPOS>SUBSTRUCTURE
1 UNL1 1
@<TRIPOS>COMMENT
olaparib
PLANTSproteinTorsions
102
4661 201.8588
5386 205.1891
6210 198.2515
5890 6.1825
4461 39.2953
1390 11.2772
2824 249.1740
4339 115.4635
2732 85.1570
4792 198.6889
3407 205.9529
5134 214.2892
6916 152.0853
7370 12.1641
6038 220.3356
7225 317.6143
3592 193.8783
2064 19.4738
2488 219.4571
1253 48.3295
2069 305.0481
2569 115.3759
3058 176.5285
1748 44.7726
1162 214.1862
1509 154.1909
560 277.1937
1627 105.4507
1941 201.0531
3631 162.9670
2381 68.2827
4221 211.9446
4687 149.1182
6983 132.9731
6668 42.5831
7305 102.8709
8693 180.8708
8404 309.5091
9055 22.0790
7052 333.3770
4708 322.5603
2652 217.6767
4332 50.4341
3011 203.8903
2257 188.6578
2778 145.0575
2057 217.3126
192 202.8905
315 165.6171
1085 161.5444
1007 111.3338
1407 26.6586
4816 27.0858
3131 223.3005
4654 212.8957
5144 303.8976
117 188.4304
6 170.6256
259 65.1685
1979 207.9915
2609 36.5961
2623 134.2456
5910 130.1484
5937 21.1426
2062 181.8672
890 134.6925
5008 145.2446
8602 146.4256
8478 85.3602
8300 147.2824
7721 36.5453
8466 238.5144
7852 3.6669
5849 24.2256
6302 21.5196
7439 15.6960
6284 232.1212
6003 255.6812
7165 12.5700
7623 274.7750
8158 256.0129
8667 149.7459
9078 20.5696
8684 118.4970
7666 49.8626
4231 122.8166
1659 337.9812
489 138.8027
238 131.2561
46 221.9614
83 199.5979
254 208.7273
1066 261.4448
2112 256.0745
4047 224.3782
5402 233.7883
2544 284.6086
4670 95.5340
4426 236.4299
5656 22.1681
7040 273.3154
6282 284.4499
PLANTSmolcadARTstart hb
PLANTSmolcadARTstart HB
LINES
PLANTSmolcadARTstart HBCH
LINES
PLANTSmolcadARTstart HB-CHO
LINES
PLANTSmolcadARTend
PLANTSmolcadARTstart HB_WATER
LINES
PLANTSmolcadARTend

PLANTSmolcadARTend

