@<TRIPOS>MOLECULE
olaparib_entry_00001_conf_56
55 59 1
SMALL
NO_CHARGES


@<TRIPOS>ATOM
      1 N         -23.6682  -35.1128    1.2869 N.am      1 UNL1        0.0000
      2 N         -21.1574  -35.3264    0.6555 N.am      1 UNL1        0.0000
      3 N         -22.5961  -30.2494    0.9699 N.2       1 UNL1        0.0000
      4 N         -22.2926  -29.9027   -0.2574 N.am      1 UNL1        0.0000
      5 C         -22.7609  -28.7925   -0.8448 C.2       1 UNL1        0.0000
      6 C         -23.6051  -27.9687   -0.1290 C.ar      1 UNL1        0.0000
      7 C         -24.1370  -26.8114   -0.6990 C.ar      1 UNL1        0.0000
      8 C         -24.9953  -26.0147    0.0277 C.ar      1 UNL1        0.0000
      9 C         -25.2879  -26.4204    1.3127 C.ar      1 UNL1        0.0000
     10 C         -24.7677  -27.5662    1.8908 C.ar      1 UNL1        0.0000
     11 C         -23.9173  -28.3462    1.1640 C.ar      1 UNL1        0.0000
     12 C         -23.4260  -29.4847    1.7444 C.2       1 UNL1        0.0000
     13 C         -23.6295  -29.9469    3.1112 C.3       1 UNL1        0.0000
     14 C         -24.5451  -31.1209    3.1361 C.ar      1 UNL1        0.0000
     15 C         -24.2778  -32.1179    2.1810 C.ar      1 UNL1        0.0000
     16 C         -25.0746  -33.2359    2.1186 C.ar      1 UNL1        0.0000
     17 C         -24.8209  -34.3009    1.1222 C.2       1 UNL1        0.0000
     18 C         -23.3928  -36.1530    0.3493 C.3       1 UNL1        0.0000
     19 C         -21.9183  -36.4829    0.2597 C.3       1 UNL1        0.0000
     20 C         -21.3322  -34.8549    2.0336 C.3       1 UNL1        0.0000
     21 C         -22.7902  -34.8635    2.4150 C.3       1 UNL1        0.0000
     22 C         -20.2870  -34.6660   -0.2164 C.2       1 UNL1        0.0000
     23 C         -20.0171  -35.0045   -1.6163 C.3       1 UNL1        0.0000
     24 C         -19.0173  -36.1137   -1.8534 C.3       1 UNL1        0.0000
     25 C         -18.6888  -34.7362   -2.2271 C.3       1 UNL1        0.0000
     26 C         -26.1453  -33.4466    2.9547 C.ar      1 UNL1        0.0000
     27 C         -26.4061  -32.4700    3.8893 C.ar      1 UNL1        0.0000
     28 C         -25.5957  -31.3276    3.9550 C.ar      1 UNL1        0.0000
     29 O         -22.4804  -28.4426   -2.0198 O.2       1 UNL1        0.0000
     30 O         -19.6467  -33.6517    0.2380 O.2       1 UNL1        0.0000
     31 O         -25.5855  -34.5028    0.1510 O.2       1 UNL1        0.0000
     32 F         -26.9074  -34.5741    2.8525 F         1 UNL1        0.0000
     33 H         -23.8871  -26.5512   -1.6659 H         1 UNL1        0.0000
     34 H         -25.4005  -25.1548   -0.3717 H         1 UNL1        0.0000
     35 H         -25.9294  -25.8389    1.8735 H         1 UNL1        0.0000
     36 H         -25.0191  -27.8265    2.8575 H         1 UNL1        0.0000
     37 H         -24.0562  -29.1552    3.6909 H         1 UNL1        0.0000
     38 H         -22.6851  -30.2388    3.5213 H         1 UNL1        0.0000
     39 H         -23.4857  -32.0101    1.5286 H         1 UNL1        0.0000
     40 H         -23.7340  -35.8427   -0.6165 H         1 UNL1        0.0000
     41 H         -23.9015  -37.0333    0.6845 H         1 UNL1        0.0000
     42 H         -21.6703  -36.7499   -0.7460 H         1 UNL1        0.0000
     43 H         -21.6910  -37.3056    0.9055 H         1 UNL1        0.0000
     44 H         -20.9534  -33.8577    2.1160 H         1 UNL1        0.0000
     45 H         -20.7996  -35.5078    2.6933 H         1 UNL1        0.0000
     46 H         -23.0389  -33.9116    2.8359 H         1 UNL1        0.0000
     47 H         -22.9341  -35.6589    3.1149 H         1 UNL1        0.0000
     48 H         -21.0210  -34.7691   -1.9014 H         1 UNL1        0.0000
     49 H         -19.1998  -36.8454   -2.6127 H         1 UNL1        0.0000
     50 H         -18.5590  -36.8632   -1.2425 H         1 UNL1        0.0000
     51 H         -18.6240  -34.4681   -3.2610 H         1 UNL1        0.0000
     52 H         -17.8817  -34.0732   -1.9984 H         1 UNL1        0.0000
     53 H         -27.1987  -32.5794    4.5420 H         1 UNL1        0.0000
     54 H         -25.8133  -30.6104    4.6649 H         1 UNL1        0.0000
     55 H         -21.6902  -30.4866   -0.7731 H         1 UNL1        0.0000
@<TRIPOS>BOND
     1    1   18 1
     2    1   21 1
     3    1   17 am
     4    2   19 1
     5    2   20 1
     6    2   22 am
     7    3    4 1
     8    3   12 2
     9    4    5 am
    10    4   55 1
    11    5   29 2
    12    5    6 1
    13    6    7 ar
    14    6   11 ar
    15    7    8 ar
    16    7   33 1
    17    8   34 1
    18    8    9 ar
    19    9   10 ar
    20    9   35 1
    21   10   11 ar
    22   10   36 1
    23   11   12 1
    24   12   13 1
    25   13   37 1
    26   13   38 1
    27   13   14 1
    28   14   15 ar
    29   14   28 ar
    30   15   39 1
    31   15   16 ar
    32   16   26 ar
    33   16   17 1
    34   17   31 2
    35   18   19 1
    36   18   40 1
    37   18   41 1
    38   19   42 1
    39   19   43 1
    40   20   21 1
    41   20   45 1
    42   20   44 1
    43   21   46 1
    44   21   47 1
    45   22   30 2
    46   22   23 1
    47   23   25 1
    48   23   24 1
    49   23   48 1
    50   24   25 1
    51   24   49 1
    52   24   50 1
    53   25   51 1
    54   25   52 1
    55   26   27 ar
    56   26   32 1
    57   27   28 ar
    58   27   53 1
    59   28   54 1
@<TRIPOS>SUBSTRUCTURE
1 UNL1 1
@<TRIPOS>COMMENT
olaparib
PLANTSproteinTorsions
102
4661 191.1920
5386 42.4235
6210 46.6595
5890 16.0745
4461 16.8370
1390 60.1439
2824 230.8945
4339 127.5462
2732 216.5797
4792 24.9685
3407 127.6364
5134 30.8269
6916 11.2813
7370 194.9440
6038 11.9209
7225 149.9561
3592 307.2564
2064 315.9148
2488 158.6416
1253 320.7151
2069 18.7455
2569 296.4935
3058 182.3497
1748 159.3368
1162 250.1213
1509 73.0977
560 225.8842
1627 136.9594
1941 146.2847
3631 63.7528
2381 42.1542
4221 307.6842
4687 225.9136
6983 178.0028
6668 128.3935
7305 225.2299
8693 203.4375
8404 218.3011
9055 4.3570
7052 277.4138
4708 70.4322
2652 108.7066
4332 202.3802
3011 121.7348
2257 183.5252
2778 235.5233
2057 177.3676
192 129.3461
315 222.4776
1085 289.6730
1007 136.5697
1407 194.8631
4816 72.1150
3131 206.5648
4654 299.9153
5144 78.2052
117 137.6822
6 167.7575
259 70.4371
1979 331.7780
2609 276.1873
2623 121.3978
5910 194.6167
5937 55.7614
2062 133.9195
890 259.9037
5008 201.9248
8602 150.0336
8478 193.4091
8300 119.3030
7721 251.8625
8466 65.2063
7852 261.6231
5849 314.9409
6302 199.2726
7439 245.9338
6284 124.1863
6003 95.4743
7165 248.0226
7623 243.5727
8158 115.7644
8667 232.4807
9078 142.6289
8684 198.8997
7666 191.9183
4231 120.0961
1659 237.4720
489 260.4252
238 133.5257
46 206.9453
83 87.0262
254 210.5846
1066 303.5328
2112 239.2077
4047 184.3511
5402 221.9995
2544 67.2138
4670 201.0308
4426 92.7790
5656 206.5059
7040 223.5182
6282 78.9254
PLANTSmolcadARTstart hb
PLANTSmolcadARTstart HB
LINES
PLANTSmolcadARTstart HBCH
LINES
PLANTSmolcadARTstart HB-CHO
LINES
PLANTSmolcadARTend
PLANTSmolcadARTstart HB_WATER
LINES
PLANTSmolcadARTend

PLANTSmolcadARTend

