@<TRIPOS>MOLECULE
olaparib_entry_00001_conf_03
55 59 1
SMALL
NO_CHARGES


@<TRIPOS>ATOM
      1 N         -16.5509  -39.8201   -2.5149 N.am      1 UNL1        0.0000
      2 N         -16.6024  -40.4804   -5.0268 N.am      1 UNL1        0.0000
      3 N         -12.1973  -42.6063   -3.6167 N.2       1 UNL1        0.0000
      4 N         -12.6918  -43.4271   -4.5112 N.am      1 UNL1        0.0000
      5 C         -13.2508  -44.6047   -4.1988 C.2       1 UNL1        0.0000
      6 C         -13.3122  -44.9790   -2.8723 C.ar      1 UNL1        0.0000
      7 C         -13.8653  -46.2029   -2.4936 C.ar      1 UNL1        0.0000
      8 C         -13.8966  -46.5653   -1.1643 C.ar      1 UNL1        0.0000
      9 C         -13.3625  -45.6720   -0.2599 C.ar      1 UNL1        0.0000
     10 C         -12.8102  -44.4546   -0.6214 C.ar      1 UNL1        0.0000
     11 C         -12.7865  -44.1044   -1.9393 C.ar      1 UNL1        0.0000
     12 C         -12.2211  -42.9053   -2.2813 C.2       1 UNL1        0.0000
     13 C         -11.6994  -41.8794   -1.3877 C.3       1 UNL1        0.0000
     14 C         -12.8041  -41.2458   -0.6161 C.ar      1 UNL1        0.0000
     15 C         -13.7415  -40.5274   -1.3795 C.ar      1 UNL1        0.0000
     16 C         -14.7923  -39.8981   -0.7561 C.ar      1 UNL1        0.0000
     17 C         -15.7933  -39.1314   -1.5316 C.2       1 UNL1        0.0000
     18 C         -17.5289  -39.1158   -3.2794 C.3       1 UNL1        0.0000
     19 C         -17.7767  -39.7461   -4.6331 C.3       1 UNL1        0.0000
     20 C         -16.2078  -41.6091   -4.1770 C.3       1 UNL1        0.0000
     21 C         -16.3109  -41.2364   -2.7205 C.3       1 UNL1        0.0000
     22 C         -15.8562  -40.1506   -6.1619 C.2       1 UNL1        0.0000
     23 C         -16.1122  -39.0510   -7.0960 C.3       1 UNL1        0.0000
     24 C         -14.9145  -38.5311   -7.8585 C.3       1 UNL1        0.0000
     25 C         -15.5634  -37.6919   -6.8486 C.3       1 UNL1        0.0000
     26 C         -14.9900  -39.9286    0.6041 C.ar      1 UNL1        0.0000
     27 C         -14.0718  -40.6320    1.3503 C.ar      1 UNL1        0.0000
     28 C         -12.9979  -41.2744    0.7175 C.ar      1 UNL1        0.0000
     29 O         -13.7315  -45.4045   -5.0421 O.2       1 UNL1        0.0000
     30 O         -14.8329  -40.8754   -6.4319 O.2       1 UNL1        0.0000
     31 O         -15.9878  -37.9081   -1.3462 O.2       1 UNL1        0.0000
     32 F         -16.0497  -39.2863    1.1761 F         1 UNL1        0.0000
     33 H         -14.2522  -46.8374   -3.2097 H         1 UNL1        0.0000
     34 H         -14.3005  -47.4640   -0.8601 H         1 UNL1        0.0000
     35 H         -13.3747  -45.9245    0.7402 H         1 UNL1        0.0000
     36 H         -12.4224  -43.8210    0.0952 H         1 UNL1        0.0000
     37 H         -11.1986  -41.1306   -1.9652 H         1 UNL1        0.0000
     38 H         -11.0171  -42.3348   -0.7003 H         1 UNL1        0.0000
     39 H         -13.6405  -40.4726   -2.4049 H         1 UNL1        0.0000
     40 H         -17.1906  -38.1110   -3.4258 H         1 UNL1        0.0000
     41 H         -18.4497  -39.1477   -2.7343 H         1 UNL1        0.0000
     42 H         -17.9815  -38.9820   -5.3531 H         1 UNL1        0.0000
     43 H         -18.6166  -40.4071   -4.5769 H         1 UNL1        0.0000
     44 H         -15.1973  -41.8815   -4.3993 H         1 UNL1        0.0000
     45 H         -16.8630  -42.4330   -4.3690 H         1 UNL1        0.0000
     46 H         -15.3946  -41.5001   -2.2345 H         1 UNL1        0.0000
     47 H         -17.1455  -41.7653   -2.3121 H         1 UNL1        0.0000
     48 H         -17.0910  -39.4222   -7.3165 H         1 UNL1        0.0000
     49 H         -15.0056  -38.2869   -8.8964 H         1 UNL1        0.0000
     50 H         -13.9166  -38.8777   -8.0285 H         1 UNL1        0.0000
     51 H         -16.1206  -36.8306   -7.1530 H         1 UNL1        0.0000
     52 H         -15.2217  -37.1712   -5.9795 H         1 UNL1        0.0000
     53 H         -14.1743  -40.6866    2.3763 H         1 UNL1        0.0000
     54 H         -12.3234  -41.7949    1.3005 H         1 UNL1        0.0000
     55 H         -12.6512  -43.1651   -5.4597 H         1 UNL1        0.0000
@<TRIPOS>BOND
     1    1   18 1
     2    1   21 1
     3    1   17 am
     4    2   19 1
     5    2   20 1
     6    2   22 am
     7    3    4 1
     8    3   12 2
     9    4    5 am
    10    4   55 1
    11    5   29 2
    12    5    6 1
    13    6    7 ar
    14    6   11 ar
    15    7    8 ar
    16    7   33 1
    17    8   34 1
    18    8    9 ar
    19    9   10 ar
    20    9   35 1
    21   10   11 ar
    22   10   36 1
    23   11   12 1
    24   12   13 1
    25   13   37 1
    26   13   38 1
    27   13   14 1
    28   14   15 ar
    29   14   28 ar
    30   15   39 1
    31   15   16 ar
    32   16   26 ar
    33   16   17 1
    34   17   31 2
    35   18   19 1
    36   18   40 1
    37   18   41 1
    38   19   42 1
    39   19   43 1
    40   20   21 1
    41   20   45 1
    42   20   44 1
    43   21   46 1
    44   21   47 1
    45   22   30 2
    46   22   23 1
    47   23   25 1
    48   23   24 1
    49   23   48 1
    50   24   25 1
    51   24   49 1
    52   24   50 1
    53   25   51 1
    54   25   52 1
    55   26   27 ar
    56   26   32 1
    57   27   28 ar
    58   27   53 1
    59   28   54 1
@<TRIPOS>SUBSTRUCTURE
1 UNL1 1
@<TRIPOS>COMMENT
olaparib
PLANTSproteinTorsions
102
4661 67.9068
5386 221.7210
6210 227.4625
5890 357.4308
4461 156.2172
1390 210.8988
2824 137.4598
4339 14.4173
2732 73.9175
4792 149.3621
3407 235.6137
5134 19.8753
6916 248.8329
7370 56.1507
6038 5.0514
7225 354.8453
3592 30.2572
2064 21.7067
2488 181.3149
1253 233.1678
2069 124.7113
2569 328.9725
3058 15.4110
1748 299.0589
1162 70.8201
1509 52.8563
560 46.6474
1627 109.6779
1941 356.8290
3631 295.5468
2381 72.9065
4221 317.9457
4687 66.9557
6983 15.9035
6668 65.3973
7305 64.6433
8693 70.7280
8404 228.4807
9055 124.4756
7052 259.0810
4708 234.6146
2652 197.0913
4332 323.0505
3011 73.9594
2257 208.6196
2778 150.7590
2057 0.8885
192 35.1716
315 46.8808
1085 300.2042
1007 51.5087
1407 279.6389
4816 357.0582
3131 313.5085
4654 34.1500
5144 271.7911
117 32.1661
6 151.5839
259 315.3550
1979 298.2025
2609 251.7905
2623 22.5416
5910 177.8852
5937 48.8792
2062 125.0648
890 260.6995
5008 286.8478
8602 240.4831
8478 88.4841
8300 82.4834
7721 258.3790
8466 253.9334
7852 234.9650
5849 225.4147
6302 116.9398
7439 160.8669
6284 107.3454
6003 98.1539
7165 25.2387
7623 267.9231
8158 150.8145
8667 161.8066
9078 265.1394
8684 163.3233
7666 232.7322
4231 216.8111
1659 309.2205
489 48.7237
238 124.7678
46 199.6100
83 116.4548
254 181.6438
1066 139.0360
2112 148.9113
4047 63.1359
5402 159.9261
2544 65.5746
4670 170.0677
4426 222.4456
5656 169.3197
7040 147.6022
6282 210.2806
PLANTSmolcadARTstart hb
PLANTSmolcadARTstart HB
LINES
-12.1973 -42.6063 -3.61666 -12.228 -40.893 -4.598 0 255 0 5
PLANTSmolcadARTstart HBCH
LINES
PLANTSmolcadARTstart HB-CHO
LINES
PLANTSmolcadARTend
PLANTSmolcadARTstart HB_WATER
LINES
PLANTSmolcadARTend

PLANTSmolcadARTend

