@<TRIPOS>MOLECULE
olaparib_entry_00001_conf_18
55 59 1
SMALL
NO_CHARGES


@<TRIPOS>ATOM
      1 N         -62.3388  -71.4516   -5.7885 N.am      1 UNL1        0.0000
      2 N         -63.4091  -71.1541   -3.4402 N.am      1 UNL1        0.0000
      3 N         -59.1281  -69.9768   -2.7493 N.2       1 UNL1        0.0000
      4 N         -59.4054  -70.6315   -1.6479 N.am      1 UNL1        0.0000
      5 C         -58.5362  -71.4531   -1.0426 C.2       1 UNL1        0.0000
      6 C         -57.2858  -71.6239   -1.6003 C.ar      1 UNL1        0.0000
      7 C         -56.3501  -72.4826   -1.0223 C.ar      1 UNL1        0.0000
      8 C         -55.1147  -72.6540   -1.6088 C.ar      1 UNL1        0.0000
      9 C         -54.8690  -71.9475   -2.7671 C.ar      1 UNL1        0.0000
     10 C         -55.7881  -71.0924   -3.3518 C.ar      1 UNL1        0.0000
     11 C         -57.0067  -70.9279   -2.7620 C.ar      1 UNL1        0.0000
     12 C         -57.9100  -70.0925   -3.3626 C.2       1 UNL1        0.0000
     13 C         -57.7072  -69.2613   -4.5420 C.3       1 UNL1        0.0000
     14 C         -58.2390  -69.9379   -5.7572 C.ar      1 UNL1        0.0000
     15 C         -59.4406  -70.6465   -5.5790 C.ar      1 UNL1        0.0000
     16 C         -60.0048  -71.3130   -6.6402 C.ar      1 UNL1        0.0000
     17 C         -61.2670  -72.0704   -6.4836 C.2       1 UNL1        0.0000
     18 C         -63.5731  -72.1485   -5.6215 C.3       1 UNL1        0.0000
     19 C         -64.3390  -71.6946   -4.3974 C.3       1 UNL1        0.0000
     20 C         -62.6524  -69.9648   -3.8462 C.3       1 UNL1        0.0000
     21 C         -62.1521  -70.1131   -5.2601 C.3       1 UNL1        0.0000
     22 C         -63.2184  -71.7204   -2.1764 C.2       1 UNL1        0.0000
     23 C         -63.8834  -72.9079   -1.6334 C.3       1 UNL1        0.0000
     24 C         -65.3923  -72.8502   -1.5556 C.3       1 UNL1        0.0000
     25 C         -64.5931  -72.8589   -0.3282 C.3       1 UNL1        0.0000
     26 C         -59.4533  -71.3302   -7.8994 C.ar      1 UNL1        0.0000
     27 C         -58.2771  -70.6363   -8.0727 C.ar      1 UNL1        0.0000
     28 C         -57.6982  -69.9560   -6.9918 C.ar      1 UNL1        0.0000
     29 O         -58.7831  -72.0884    0.0144 O.2       1 UNL1        0.0000
     30 O         -62.3743  -71.1555   -1.3931 O.2       1 UNL1        0.0000
     31 O         -61.4133  -73.2269   -6.9418 O.2       1 UNL1        0.0000
     32 F         -60.0523  -72.0082   -8.9213 F         1 UNL1        0.0000
     33 H         -56.5829  -72.9896   -0.1541 H         1 UNL1        0.0000
     34 H         -54.4068  -73.2826   -1.2002 H         1 UNL1        0.0000
     35 H         -53.9508  -72.0624   -3.2229 H         1 UNL1        0.0000
     36 H         -55.5550  -70.5865   -4.2207 H         1 UNL1        0.0000
     37 H         -56.6604  -69.0801   -4.6695 H         1 UNL1        0.0000
     38 H         -58.2294  -68.3370   -4.4070 H         1 UNL1        0.0000
     39 H         -59.8972  -70.6662   -4.6540 H         1 UNL1        0.0000
     40 H         -63.3658  -73.1944   -5.5279 H         1 UNL1        0.0000
     41 H         -64.1801  -71.9407   -6.4784 H         1 UNL1        0.0000
     42 H         -64.8551  -72.5270   -3.9673 H         1 UNL1        0.0000
     43 H         -65.0525  -70.9460   -4.6732 H         1 UNL1        0.0000
     44 H         -61.8174  -69.8368   -3.1897 H         1 UNL1        0.0000
     45 H         -63.2957  -69.1111   -3.7961 H         1 UNL1        0.0000
     46 H         -61.1073  -69.8826   -5.2787 H         1 UNL1        0.0000
     47 H         -62.7189  -69.4448   -5.8728 H         1 UNL1        0.0000
     48 H         -63.1358  -73.5545   -2.0425 H         1 UNL1        0.0000
     49 H         -65.9750  -73.7076   -1.8211 H         1 UNL1        0.0000
     50 H         -66.1475  -72.2115   -1.9637 H         1 UNL1        0.0000
     51 H         -64.6018  -73.7220    0.3043 H         1 UNL1        0.0000
     52 H         -64.5361  -72.2233    0.5297 H         1 UNL1        0.0000
     53 H         -57.8215  -70.6169   -8.9991 H         1 UNL1        0.0000
     54 H         -56.8158  -69.4438   -7.1488 H         1 UNL1        0.0000
     55 H         -60.2962  -70.5133   -1.2451 H         1 UNL1        0.0000
@<TRIPOS>BOND
     1    1   18 1
     2    1   21 1
     3    1   17 am
     4    2   19 1
     5    2   20 1
     6    2   22 am
     7    3    4 1
     8    3   12 2
     9    4    5 am
    10    4   55 1
    11    5   29 2
    12    5    6 1
    13    6    7 ar
    14    6   11 ar
    15    7    8 ar
    16    7   33 1
    17    8   34 1
    18    8    9 ar
    19    9   10 ar
    20    9   35 1
    21   10   11 ar
    22   10   36 1
    23   11   12 1
    24   12   13 1
    25   13   37 1
    26   13   38 1
    27   13   14 1
    28   14   15 ar
    29   14   28 ar
    30   15   39 1
    31   15   16 ar
    32   16   26 ar
    33   16   17 1
    34   17   31 2
    35   18   19 1
    36   18   40 1
    37   18   41 1
    38   19   42 1
    39   19   43 1
    40   20   21 1
    41   20   45 1
    42   20   44 1
    43   21   46 1
    44   21   47 1
    45   22   30 2
    46   22   23 1
    47   23   25 1
    48   23   24 1
    49   23   48 1
    50   24   25 1
    51   24   49 1
    52   24   50 1
    53   25   51 1
    54   25   52 1
    55   26   27 ar
    56   26   32 1
    57   27   28 ar
    58   27   53 1
    59   28   54 1
@<TRIPOS>SUBSTRUCTURE
1 UNL1 1
@<TRIPOS>COMMENT
olaparib
PLANTSproteinTorsions
102
4661 144.4230
5386 179.0801
6210 200.2888
5890 195.5437
4461 239.5230
1390 324.1445
2824 25.3689
4339 50.2394
2732 357.3499
4792 22.1740
3407 77.7462
5134 223.2098
6916 2.6637
7370 124.7426
6038 28.9494
7225 1.1891
3592 215.6791
2064 130.5330
2488 4.2867
1253 3.4090
2069 143.9011
2569 241.2877
3058 9.8217
1748 335.0725
1162 95.0812
1509 202.2611
560 8.2630
1627 80.4248
1941 70.7400
3631 251.3224
2381 4.2528
4221 9.2800
4687 192.9027
6983 176.6559
6668 21.5899
7305 253.4225
8693 130.4960
8404 25.1516
9055 123.5158
7052 230.2518
4708 295.7888
2652 198.6588
4332 17.5370
3011 36.0709
2257 165.4127
2778 111.9169
2057 258.0665
192 257.7468
315 142.5426
1085 197.7908
1007 120.2516
1407 284.0652
4816 338.2000
3131 130.6807
4654 84.9997
5144 249.5849
117 32.7408
6 129.3973
259 182.8290
1979 111.9930
2609 216.3097
2623 342.5745
5910 312.8206
5937 109.6412
2062 225.1053
890 6.4757
5008 259.7130
8602 216.1025
8478 204.4268
8300 24.3820
7721 1.1401
8466 207.8614
7852 158.4940
5849 21.4176
6302 77.7798
7439 80.1967
6284 129.8696
6003 175.9163
7165 285.4417
7623 212.0289
8158 331.3854
8667 148.4246
9078 27.7986
8684 260.1384
7666 116.5772
4231 280.6977
1659 234.1313
489 285.5248
238 182.7712
46 111.1442
83 57.9918
254 246.1201
1066 189.5218
2112 261.3612
4047 40.2680
5402 174.7337
2544 263.3961
4670 13.6357
4426 135.9608
5656 251.8355
7040 257.9140
6282 124.7169
PLANTSmolcadARTstart hb
PLANTSmolcadARTstart HB
LINES
-62.3743 -71.1555 -1.39308 -61.778 -69.753 -0.099 0 255 0 5
PLANTSmolcadARTstart HBCH
LINES
PLANTSmolcadARTstart HB-CHO
LINES
PLANTSmolcadARTend
PLANTSmolcadARTstart HB_WATER
LINES
PLANTSmolcadARTend

PLANTSmolcadARTend

