@<TRIPOS>MOLECULE
olaparib_entry_00001_conf_92
55 59 1
SMALL
NO_CHARGES


@<TRIPOS>ATOM
      1 N         -42.7506  -51.4270  -18.3811 N.am      1 UNL1        0.0000
      2 N         -41.1728  -53.4585  -18.7443 N.am      1 UNL1        0.0000
      3 N         -44.8169  -45.8811  -22.0549 N.2       1 UNL1        0.0000
      4 N         -45.5194  -45.0486  -22.7843 N.am      1 UNL1        0.0000
      5 C         -44.9683  -44.1714  -23.6351 C.2       1 UNL1        0.0000
      6 C         -43.5942  -44.1365  -23.7546 C.ar      1 UNL1        0.0000
      7 C         -42.9681  -43.2295  -24.6103 C.ar      1 UNL1        0.0000
      8 C         -41.5930  -43.1980  -24.6976 C.ar      1 UNL1        0.0000
      9 C         -40.8959  -44.0897  -23.9100 C.ar      1 UNL1        0.0000
     10 C         -41.5040  -44.9948  -23.0563 C.ar      1 UNL1        0.0000
     11 C         -42.8654  -45.0195  -22.9794 C.ar      1 UNL1        0.0000
     12 C         -43.4499  -45.9083  -22.1174 C.2       1 UNL1        0.0000
     13 C         -42.7936  -46.9248  -21.3057 C.3       1 UNL1        0.0000
     14 C         -43.6318  -48.1529  -21.2257 C.ar      1 UNL1        0.0000
     15 C         -43.4684  -48.9228  -20.0603 C.ar      1 UNL1        0.0000
     16 C         -44.1913  -50.0805  -19.8990 C.ar      1 UNL1        0.0000
     17 C         -44.0389  -50.9143  -18.6854 C.2       1 UNL1        0.0000
     18 C         -42.5633  -52.2309  -17.2168 C.3       1 UNL1        0.0000
     19 C         -41.3966  -53.1861  -17.3483 C.3       1 UNL1        0.0000
     20 C         -40.7975  -52.3216  -19.5920 C.3       1 UNL1        0.0000
     21 C         -41.6452  -51.1181  -19.2691 C.3       1 UNL1        0.0000
     22 C         -41.3025  -54.7391  -19.2896 C.2       1 UNL1        0.0000
     23 C         -41.6816  -55.9644  -18.5811 C.3       1 UNL1        0.0000
     24 C         -40.6415  -56.5453  -17.6501 C.3       1 UNL1        0.0000
     25 C         -41.0111  -57.2581  -18.8750 C.3       1 UNL1        0.0000
     26 C         -45.0891  -50.5450  -20.8307 C.ar      1 UNL1        0.0000
     27 C         -45.2482  -49.7906  -21.9711 C.ar      1 UNL1        0.0000
     28 C         -44.5115  -48.6094  -22.1393 C.ar      1 UNL1        0.0000
     29 O         -45.6251  -43.3663  -24.3437 O.2       1 UNL1        0.0000
     30 O         -41.0698  -54.8777  -20.5434 O.2       1 UNL1        0.0000
     31 O         -45.0026  -51.1760  -17.9294 O.2       1 UNL1        0.0000
     32 F         -45.7829  -51.7020  -20.6242 F         1 UNL1        0.0000
     33 H         -43.5352  -42.5816  -25.1793 H         1 UNL1        0.0000
     34 H         -41.1077  -42.5372  -25.3229 H         1 UNL1        0.0000
     35 H         -39.8655  -44.0818  -23.9592 H         1 UNL1        0.0000
     36 H         -40.9361  -45.6416  -22.4867 H         1 UNL1        0.0000
     37 H         -42.6366  -46.5407  -20.3193 H         1 UNL1        0.0000
     38 H         -41.8571  -47.1767  -21.7585 H         1 UNL1        0.0000
     39 H         -42.8073  -48.6196  -19.3285 H         1 UNL1        0.0000
     40 H         -43.4541  -52.7990  -17.0460 H         1 UNL1        0.0000
     41 H         -42.3516  -51.5722  -16.3999 H         1 UNL1        0.0000
     42 H         -41.6191  -54.0978  -16.8350 H         1 UNL1        0.0000
     43 H         -40.5195  -52.7485  -16.9185 H         1 UNL1        0.0000
     44 H         -40.9391  -52.5856  -20.6191 H         1 UNL1        0.0000
     45 H         -39.7712  -52.0786  -19.4113 H         1 UNL1        0.0000
     46 H         -42.0418  -50.7246  -20.1818 H         1 UNL1        0.0000
     47 H         -41.0199  -50.4103  -18.7680 H         1 UNL1        0.0000
     48 H         -42.7057  -55.6589  -18.5322 H         1 UNL1        0.0000
     49 H         -40.9337  -56.9329  -16.6963 H         1 UNL1        0.0000
     50 H         -39.7246  -56.1934  -17.2253 H         1 UNL1        0.0000
     51 H         -41.5662  -58.1707  -18.8108 H         1 UNL1        0.0000
     52 H         -40.4632  -57.6429  -19.7087 H         1 UNL1        0.0000
     53 H         -45.9106  -50.0948  -22.7024 H         1 UNL1        0.0000
     54 H         -44.6496  -48.0625  -23.0039 H         1 UNL1        0.0000
     55 H         -46.5006  -45.0692  -22.7035 H         1 UNL1        0.0000
@<TRIPOS>BOND
     1    1   18 1
     2    1   21 1
     3    1   17 am
     4    2   19 1
     5    2   20 1
     6    2   22 am
     7    3    4 1
     8    3   12 2
     9    4    5 am
    10    4   55 1
    11    5   29 2
    12    5    6 1
    13    6    7 ar
    14    6   11 ar
    15    7    8 ar
    16    7   33 1
    17    8   34 1
    18    8    9 ar
    19    9   10 ar
    20    9   35 1
    21   10   11 ar
    22   10   36 1
    23   11   12 1
    24   12   13 1
    25   13   37 1
    26   13   38 1
    27   13   14 1
    28   14   15 ar
    29   14   28 ar
    30   15   39 1
    31   15   16 ar
    32   16   26 ar
    33   16   17 1
    34   17   31 2
    35   18   19 1
    36   18   40 1
    37   18   41 1
    38   19   42 1
    39   19   43 1
    40   20   21 1
    41   20   45 1
    42   20   44 1
    43   21   46 1
    44   21   47 1
    45   22   30 2
    46   22   23 1
    47   23   25 1
    48   23   24 1
    49   23   48 1
    50   24   25 1
    51   24   49 1
    52   24   50 1
    53   25   51 1
    54   25   52 1
    55   26   27 ar
    56   26   32 1
    57   27   28 ar
    58   27   53 1
    59   28   54 1
@<TRIPOS>SUBSTRUCTURE
1 UNL1 1
@<TRIPOS>COMMENT
olaparib
PLANTSproteinTorsions
102
4661 25.0222
5386 47.7249
6210 4.4225
5890 223.9829
4461 163.3064
1390 27.1835
2824 356.6533
4339 183.7319
2732 120.2040
4792 179.7617
3407 30.0187
5134 302.4218
6916 201.4529
7370 33.0178
6038 94.4600
7225 186.4690
3592 279.6177
2064 59.0974
2488 96.6087
1253 244.2749
2069 220.0347
2569 270.6956
3058 131.9406
1748 179.9172
1162 125.5906
1509 215.8935
560 125.6212
1627 79.7811
1941 354.7873
3631 199.9614
2381 74.5767
4221 90.0755
4687 6.0599
6983 2.6230
6668 131.8065
7305 225.2956
8693 188.5488
8404 82.5090
9055 97.4644
7052 6.5107
4708 33.3433
2652 250.8170
4332 238.6368
3011 15.8927
2257 181.7373
2778 294.6814
2057 68.2591
192 327.6475
315 166.3651
1085 64.6506
1007 198.1421
1407 146.0818
4816 94.3961
3131 180.2285
4654 216.2992
5144 240.0058
117 52.1032
6 233.8291
259 140.4908
1979 119.1615
2609 130.9707
2623 259.8798
5910 274.6652
5937 47.6301
2062 146.1729
890 265.7124
5008 158.9404
8602 21.2170
8478 32.2453
8300 220.4772
7721 201.1434
8466 41.3195
7852 161.4399
5849 115.4804
6302 79.4344
7439 272.0396
6284 102.7587
6003 224.7037
7165 247.0217
7623 225.1620
8158 235.8007
8667 353.9261
9078 254.8317
8684 176.6876
7666 118.4411
4231 252.4224
1659 235.0704
489 239.9142
238 279.8527
46 241.6687
83 202.6037
254 155.7747
1066 248.0945
2112 190.9230
4047 44.1016
5402 225.7106
2544 146.5797
4670 94.9745
4426 269.3829
5656 136.7324
7040 93.4547
6282 115.7462
PLANTSmolcadARTstart hb
PLANTSmolcadARTstart HB
LINES
PLANTSmolcadARTstart HBCH
LINES
PLANTSmolcadARTstart HB-CHO
LINES
PLANTSmolcadARTend
PLANTSmolcadARTstart HB_WATER
LINES
PLANTSmolcadARTend

PLANTSmolcadARTend

