@<TRIPOS>MOLECULE
olaparib_entry_00001_conf_48
55 59 1
SMALL
NO_CHARGES


@<TRIPOS>ATOM
      1 N          -0.2195  -76.4012   -0.4348 N.am      1 UNL1        0.0000
      2 N           1.5147  -75.5676    1.3105 N.am      1 UNL1        0.0000
      3 N          -1.6513  -82.7708    2.8195 N.2       1 UNL1        0.0000
      4 N          -1.7220  -84.0798    2.8317 N.am      1 UNL1        0.0000
      5 C          -2.8226  -84.7598    2.4809 C.2       1 UNL1        0.0000
      6 C          -3.9410  -84.0544    2.0867 C.ar      1 UNL1        0.0000
      7 C          -5.1192  -84.7117    1.7306 C.ar      1 UNL1        0.0000
      8 C          -6.2307  -83.9857    1.3606 C.ar      1 UNL1        0.0000
      9 C          -6.1105  -82.6121    1.3655 C.ar      1 UNL1        0.0000
     10 C          -4.9479  -81.9467    1.7168 C.ar      1 UNL1        0.0000
     11 C          -3.8529  -82.6745    2.0789 C.ar      1 UNL1        0.0000
     12 C          -2.7172  -82.0007    2.4402 C.2       1 UNL1        0.0000
     13 C          -2.4864  -80.5624    2.4076 C.3       1 UNL1        0.0000
     14 C          -2.4084  -80.0763    1.0022 C.ar      1 UNL1        0.0000
     15 C          -2.0457  -78.7264    0.8476 C.ar      1 UNL1        0.0000
     16 C          -1.9570  -78.1824   -0.4114 C.ar      1 UNL1        0.0000
     17 C          -1.5811  -76.7640   -0.6067 C.2       1 UNL1        0.0000
     18 C           0.1822  -75.0441   -0.6193 C.3       1 UNL1        0.0000
     19 C           1.4217  -74.6891    0.1735 C.3       1 UNL1        0.0000
     20 C           1.6690  -76.9999    1.0336 C.3       1 UNL1        0.0000
     21 C           0.7397  -77.4281   -0.0728 C.3       1 UNL1        0.0000
     22 C           1.4616  -75.1000    2.6268 C.2       1 UNL1        0.0000
     23 C           1.2973  -73.7107    3.0625 C.3       1 UNL1        0.0000
     24 C           2.5279  -73.0396    3.6296 C.3       1 UNL1        0.0000
     25 C           1.3893  -73.3425    4.4998 C.3       1 UNL1        0.0000
     26 C          -2.2067  -78.8951   -1.5602 C.ar      1 UNL1        0.0000
     27 C          -2.5617  -80.2163   -1.4076 C.ar      1 UNL1        0.0000
     28 C          -2.6542  -80.7742   -0.1245 C.ar      1 UNL1        0.0000
     29 O          -2.9093  -86.0145    2.4848 O.2       1 UNL1        0.0000
     30 O           1.5651  -75.9640    3.5692 O.2       1 UNL1        0.0000
     31 O          -2.4202  -75.8870   -0.9156 O.2       1 UNL1        0.0000
     32 F          -2.1057  -78.3087   -2.7885 F         1 UNL1        0.0000
     33 H          -5.1584  -85.7429    1.7436 H         1 UNL1        0.0000
     34 H          -7.1123  -84.4489    1.0929 H         1 UNL1        0.0000
     35 H          -6.9313  -82.0498    1.0930 H         1 UNL1        0.0000
     36 H          -4.9098  -80.9153    1.7047 H         1 UNL1        0.0000
     37 H          -1.5667  -80.3417    2.9080 H         1 UNL1        0.0000
     38 H          -3.3015  -80.0707    2.8966 H         1 UNL1        0.0000
     39 H          -1.8471  -78.1458    1.6771 H         1 UNL1        0.0000
     40 H          -0.6181  -74.4048   -0.3089 H         1 UNL1        0.0000
     41 H           0.4131  -74.9136   -1.6565 H         1 UNL1        0.0000
     42 H           1.3568  -73.6748    0.5068 H         1 UNL1        0.0000
     43 H           2.2900  -74.7994   -0.4425 H         1 UNL1        0.0000
     44 H           1.4417  -77.5567    1.9185 H         1 UNL1        0.0000
     45 H           2.6774  -77.1871    0.7285 H         1 UNL1        0.0000
     46 H           0.2033  -78.2966    0.2483 H         1 UNL1        0.0000
     47 H           1.3385  -77.6259   -0.9363 H         1 UNL1        0.0000
     48 H           0.5737  -73.5215    2.2977 H         1 UNL1        0.0000
     49 H           2.7504  -72.0248    3.3728 H         1 UNL1        0.0000
     50 H           3.5739  -73.2645    3.6442 H         1 UNL1        0.0000
     51 H           0.7879  -72.5448    4.8833 H         1 UNL1        0.0000
     52 H           1.2734  -73.8792    5.4172 H         1 UNL1        0.0000
     53 H          -2.7597  -80.7963   -2.2386 H         1 UNL1        0.0000
     54 H          -2.9227  -81.7672   -0.0381 H         1 UNL1        0.0000
     55 H          -0.9267  -84.5887    3.1118 H         1 UNL1        0.0000
@<TRIPOS>BOND
     1    1   18 1
     2    1   21 1
     3    1   17 am
     4    2   19 1
     5    2   20 1
     6    2   22 am
     7    3    4 1
     8    3   12 2
     9    4    5 am
    10    4   55 1
    11    5   29 2
    12    5    6 1
    13    6    7 ar
    14    6   11 ar
    15    7    8 ar
    16    7   33 1
    17    8   34 1
    18    8    9 ar
    19    9   10 ar
    20    9   35 1
    21   10   11 ar
    22   10   36 1
    23   11   12 1
    24   12   13 1
    25   13   37 1
    26   13   38 1
    27   13   14 1
    28   14   15 ar
    29   14   28 ar
    30   15   39 1
    31   15   16 ar
    32   16   26 ar
    33   16   17 1
    34   17   31 2
    35   18   19 1
    36   18   40 1
    37   18   41 1
    38   19   42 1
    39   19   43 1
    40   20   21 1
    41   20   45 1
    42   20   44 1
    43   21   46 1
    44   21   47 1
    45   22   30 2
    46   22   23 1
    47   23   25 1
    48   23   24 1
    49   23   48 1
    50   24   25 1
    51   24   49 1
    52   24   50 1
    53   25   51 1
    54   25   52 1
    55   26   27 ar
    56   26   32 1
    57   27   28 ar
    58   27   53 1
    59   28   54 1
@<TRIPOS>SUBSTRUCTURE
1 UNL1 1
@<TRIPOS>COMMENT
olaparib
PLANTSproteinTorsions
102
4661 111.4606
5386 55.6415
6210 1.4932
5890 13.8752
4461 4.1437
1390 287.3583
2824 77.5710
4339 147.8823
2732 0.3700
4792 358.2313
3407 2.7701
5134 0.5018
6916 55.3703
7370 94.0362
6038 174.4107
7225 104.4671
3592 184.7906
2064 43.2029
2488 215.0685
1253 138.9830
2069 51.5705
2569 20.0462
3058 211.1292
1748 195.8041
1162 43.4809
1509 58.8128
560 158.7695
1627 126.6894
1941 303.1650
3631 8.5055
2381 231.3311
4221 296.3250
4687 256.7470
6983 199.6637
6668 84.8066
7305 111.6539
8693 189.2074
8404 107.6753
9055 264.0209
7052 42.6722
4708 75.2952
2652 212.6463
4332 221.8928
3011 163.9638
2257 216.6495
2778 187.1201
2057 210.2160
192 272.0043
315 285.6117
1085 26.3941
1007 42.6446
1407 155.6827
4816 110.6974
3131 220.3489
4654 49.5914
5144 250.4614
117 270.7098
6 110.6082
259 107.7296
1979 173.1638
2609 263.5466
2623 260.5141
5910 98.6686
5937 165.7756
2062 265.6816
890 42.9825
5008 146.4361
8602 146.3100
8478 117.3649
8300 250.3024
7721 199.6472
8466 335.3458
7852 238.1707
5849 38.9795
6302 159.1986
7439 247.4458
6284 139.0870
6003 163.8185
7165 98.1321
7623 173.7019
8158 138.4546
8667 145.5118
9078 42.1891
8684 258.0491
7666 246.3951
4231 269.3486
1659 242.2976
489 94.0977
238 231.8631
46 229.0059
83 246.4800
254 268.2225
1066 220.1558
2112 325.8689
4047 257.9035
5402 216.4203
2544 154.4307
4670 270.6847
4426 182.4819
5656 269.2382
7040 206.2443
6282 79.5932
PLANTSmolcadARTstart hb
PLANTSmolcadARTstart HB
LINES
-1.65125 -82.7708 2.81953 -0.08 -82.314 4.136 0 255 0 5
PLANTSmolcadARTstart HBCH
LINES
PLANTSmolcadARTstart HB-CHO
LINES
PLANTSmolcadARTend
PLANTSmolcadARTstart HB_WATER
LINES
PLANTSmolcadARTend

PLANTSmolcadARTend

