@<TRIPOS>MOLECULE
olaparib_entry_00001_conf_28
55 59 1
SMALL
NO_CHARGES


@<TRIPOS>ATOM
      1 N         -21.1231  -57.4268  -17.8606 N.am      1 UNL1        0.0000
      2 N         -19.4746  -58.7038  -19.4098 N.am      1 UNL1        0.0000
      3 N         -19.9135  -54.3390  -11.4627 N.2       1 UNL1        0.0000
      4 N         -20.3975  -53.2851  -10.8513 N.am      1 UNL1        0.0000
      5 C         -19.9075  -52.0487  -11.0184 C.2       1 UNL1        0.0000
      6 C         -18.8404  -51.8678  -11.8742 C.ar      1 UNL1        0.0000
      7 C         -18.2789  -50.6054  -12.0693 C.ar      1 UNL1        0.0000
      8 C         -17.1997  -50.4519  -12.9126 C.ar      1 UNL1        0.0000
      9 C         -16.7230  -51.5883  -13.5312 C.ar      1 UNL1        0.0000
     10 C         -17.2700  -52.8471  -13.3467 C.ar      1 UNL1        0.0000
     11 C         -18.3394  -52.9876  -12.5121 C.ar      1 UNL1        0.0000
     12 C         -18.8570  -54.2416  -12.3273 C.2       1 UNL1        0.0000
     13 C         -18.4587  -55.4762  -12.9907 C.3       1 UNL1        0.0000
     14 C         -19.6462  -56.1716  -13.5597 C.ar      1 UNL1        0.0000
     15 C         -19.8810  -55.9478  -14.9280 C.ar      1 UNL1        0.0000
     16 C         -20.9595  -56.5382  -15.5419 C.ar      1 UNL1        0.0000
     17 C         -21.2352  -56.3193  -16.9798 C.2       1 UNL1        0.0000
     18 C         -21.3859  -57.2559  -19.2530 C.3       1 UNL1        0.0000
     19 C         -20.6497  -58.2601  -20.1136 C.3       1 UNL1        0.0000
     20 C         -19.6859  -59.4109  -18.1419 C.3       1 UNL1        0.0000
     21 C         -20.7411  -58.7177  -17.3190 C.3       1 UNL1        0.0000
     22 C         -18.1817  -58.4813  -19.8924 C.2       1 UNL1        0.0000
     23 C         -17.8094  -57.7835  -21.1259 C.3       1 UNL1        0.0000
     24 C         -17.7911  -58.6196  -22.3856 C.3       1 UNL1        0.0000
     25 C         -16.5394  -58.0990  -21.8312 C.3       1 UNL1        0.0000
     26 C         -21.8469  -57.3568  -14.8842 C.ar      1 UNL1        0.0000
     27 C         -21.6161  -57.5751  -13.5448 C.ar      1 UNL1        0.0000
     28 C         -20.5171  -56.9734  -12.9150 C.ar      1 UNL1        0.0000
     29 O         -20.3588  -51.0259  -10.4422 O.2       1 UNL1        0.0000
     30 O         -17.2019  -58.9273  -19.1950 O.2       1 UNL1        0.0000
     31 O         -21.5607  -55.1985  -17.4344 O.2       1 UNL1        0.0000
     32 F         -22.9040  -57.9195  -15.5388 F         1 UNL1        0.0000
     33 H         -18.6725  -49.7852  -11.5820 H         1 UNL1        0.0000
     34 H         -16.7681  -49.5293  -13.0730 H         1 UNL1        0.0000
     35 H         -15.9148  -51.4956  -14.1656 H         1 UNL1        0.0000
     36 H         -16.8751  -53.6671  -13.8335 H         1 UNL1        0.0000
     37 H         -17.9808  -56.1190  -12.2812 H         1 UNL1        0.0000
     38 H         -17.7852  -55.2383  -13.7875 H         1 UNL1        0.0000
     39 H         -19.2455  -55.3416  -15.4696 H         1 UNL1        0.0000
     40 H         -21.0826  -56.2706  -19.5403 H         1 UNL1        0.0000
     41 H         -22.4348  -57.4070  -19.4049 H         1 UNL1        0.0000
     42 H         -20.3645  -57.8013  -21.0368 H         1 UNL1        0.0000
     43 H         -21.2860  -59.0954  -20.3208 H         1 UNL1        0.0000
     44 H         -18.7684  -59.4308  -17.5920 H         1 UNL1        0.0000
     45 H         -20.0124  -60.4081  -18.3517 H         1 UNL1        0.0000
     46 H         -20.3617  -58.5725  -16.3290 H         1 UNL1        0.0000
     47 H         -21.6119  -59.3382  -17.3252 H         1 UNL1        0.0000
     48 H         -18.2578  -56.8737  -20.7859 H         1 UNL1        0.0000
     49 H         -18.1794  -58.2197  -23.2991 H         1 UNL1        0.0000
     50 H         -18.1550  -59.5888  -22.6563 H         1 UNL1        0.0000
     51 H         -16.0122  -57.3243  -22.3478 H         1 UNL1        0.0000
     52 H         -15.6120  -58.5425  -21.5372 H         1 UNL1        0.0000
     53 H         -22.2525  -58.1824  -13.0041 H         1 UNL1        0.0000
     54 H         -20.3672  -57.1533  -11.9097 H         1 UNL1        0.0000
     55 H         -21.1594  -53.4080  -10.2395 H         1 UNL1        0.0000
@<TRIPOS>BOND
     1    1   18 1
     2    1   21 1
     3    1   17 am
     4    2   19 1
     5    2   20 1
     6    2   22 am
     7    3    4 1
     8    3   12 2
     9    4    5 am
    10    4   55 1
    11    5   29 2
    12    5    6 1
    13    6    7 ar
    14    6   11 ar
    15    7    8 ar
    16    7   33 1
    17    8   34 1
    18    8    9 ar
    19    9   10 ar
    20    9   35 1
    21   10   11 ar
    22   10   36 1
    23   11   12 1
    24   12   13 1
    25   13   37 1
    26   13   38 1
    27   13   14 1
    28   14   15 ar
    29   14   28 ar
    30   15   39 1
    31   15   16 ar
    32   16   26 ar
    33   16   17 1
    34   17   31 2
    35   18   19 1
    36   18   40 1
    37   18   41 1
    38   19   42 1
    39   19   43 1
    40   20   21 1
    41   20   45 1
    42   20   44 1
    43   21   46 1
    44   21   47 1
    45   22   30 2
    46   22   23 1
    47   23   25 1
    48   23   24 1
    49   23   48 1
    50   24   25 1
    51   24   49 1
    52   24   50 1
    53   25   51 1
    54   25   52 1
    55   26   27 ar
    56   26   32 1
    57   27   28 ar
    58   27   53 1
    59   28   54 1
@<TRIPOS>SUBSTRUCTURE
1 UNL1 1
@<TRIPOS>COMMENT
olaparib
PLANTSproteinTorsions
102
4661 125.7106
5386 2.0833
6210 341.3311
5890 65.7519
4461 248.3192
1390 197.8716
2824 62.1941
4339 355.8919
2732 2.3106
4792 53.8312
3407 22.4366
5134 30.9237
6916 285.3792
7370 28.7195
6038 95.6425
7225 28.5476
3592 263.7834
2064 25.7103
2488 235.4815
1253 63.1031
2069 177.6115
2569 190.6205
3058 344.9118
1748 305.9743
1162 194.3849
1509 110.6500
560 357.6586
1627 345.3064
1941 29.0968
3631 244.4552
2381 61.0562
4221 152.1170
4687 77.0165
6983 3.2924
6668 107.2445
7305 43.3050
8693 293.3523
8404 9.2241
9055 72.0425
7052 339.2526
4708 48.4085
2652 259.2687
4332 94.1164
3011 226.9938
2257 119.7847
2778 139.3228
2057 258.4410
192 3.2251
315 122.5655
1085 193.4605
1007 255.4859
1407 65.5705
4816 82.0587
3131 2.8533
4654 291.1064
5144 34.4073
117 295.9595
6 42.8988
259 24.2744
1979 320.1281
2609 211.4931
2623 199.4869
5910 126.6997
5937 243.6987
2062 162.8636
890 29.9457
5008 79.0185
8602 340.9319
8478 329.4965
8300 267.5229
7721 24.8474
8466 197.7051
7852 67.4094
5849 82.9867
6302 209.0089
7439 125.6416
6284 89.4157
6003 211.7641
7165 259.6041
7623 243.6508
8158 227.8817
8667 258.0576
9078 250.7631
8684 238.4611
7666 40.5148
4231 33.1211
1659 246.3130
489 261.6979
238 254.6746
46 86.4225
83 138.4549
254 173.2301
1066 158.8541
2112 113.4868
4047 179.1921
5402 245.9358
2544 122.5908
4670 38.7566
4426 321.9984
5656 189.9658
7040 171.6131
6282 237.8425
PLANTSmolcadARTstart hb
PLANTSmolcadARTstart HB
LINES
-20.3588 -51.0259 -10.4422 -22.179 -50.933 -10.369 0 255 0 5
PLANTSmolcadARTstart HBCH
LINES
PLANTSmolcadARTstart HB-CHO
LINES
PLANTSmolcadARTend
PLANTSmolcadARTstart HB_WATER
LINES
PLANTSmolcadARTend

PLANTSmolcadARTend

