@<TRIPOS>MOLECULE
olaparib_entry_00001_conf_82
55 59 1
SMALL
NO_CHARGES


@<TRIPOS>ATOM
      1 N         -28.9035  -20.4346   10.1546 N.am      1 UNL1        0.0000
      2 N         -29.8956  -18.0822    9.6748 N.am      1 UNL1        0.0000
      3 N         -26.3863  -19.5027    5.2330 N.2       1 UNL1        0.0000
      4 N         -26.9739  -19.7099    4.0796 N.am      1 UNL1        0.0000
      5 C         -26.5417  -20.6104    3.1857 C.2       1 UNL1        0.0000
      6 C         -25.4233  -21.3602    3.4867 C.ar      1 UNL1        0.0000
      7 C         -24.9193  -22.2970    2.5837 C.ar      1 UNL1        0.0000
      8 C         -23.7881  -23.0195    2.8969 C.ar      1 UNL1        0.0000
      9 C         -23.2027  -22.7659    4.1192 C.ar      1 UNL1        0.0000
     10 C         -23.6917  -21.8391    5.0247 C.ar      1 UNL1        0.0000
     11 C         -24.8130  -21.1313    4.7061 C.ar      1 UNL1        0.0000
     12 C         -25.2730  -20.2066    5.6049 C.2       1 UNL1        0.0000
     13 C         -24.7568  -19.9273    6.9385 C.3       1 UNL1        0.0000
     14 C         -25.1984  -20.9742    7.9010 C.ar      1 UNL1        0.0000
     15 C         -26.2220  -20.5905    8.7856 C.ar      1 UNL1        0.0000
     16 C         -26.6901  -21.4847    9.7184 C.ar      1 UNL1        0.0000
     17 C         -27.7641  -21.1097   10.6655 C.2       1 UNL1        0.0000
     18 C         -29.9619  -20.0610   11.0362 C.3       1 UNL1        0.0000
     19 C         -30.7429  -18.8645   10.5369 C.3       1 UNL1        0.0000
     20 C         -29.4155  -18.7289    8.4488 C.3       1 UNL1        0.0000
     21 C         -28.9653  -20.1383    8.7354 C.3       1 UNL1        0.0000
     22 C         -29.5329  -16.7653    9.9724 C.2       1 UNL1        0.0000
     23 C         -29.9170  -15.9915   11.1560 C.3       1 UNL1        0.0000
     24 C         -28.8784  -15.8859   12.2497 C.3       1 UNL1        0.0000
     25 C         -30.1067  -16.6514   12.4744 C.3       1 UNL1        0.0000
     26 C         -26.2075  -22.7659    9.8435 C.ar      1 UNL1        0.0000
     27 C         -25.2055  -23.1404    8.9770 C.ar      1 UNL1        0.0000
     28 C         -24.7249  -22.2301    8.0248 C.ar      1 UNL1        0.0000
     29 O         -27.0923  -20.8243    2.0753 O.2       1 UNL1        0.0000
     30 O         -28.7830  -16.1510    9.1325 O.2       1 UNL1        0.0000
     31 O         -27.6961  -21.3685   11.8891 O.2       1 UNL1        0.0000
     32 F         -26.7054  -23.6168   10.7873 F         1 UNL1        0.0000
     33 H         -25.3943  -22.4498    1.6804 H         1 UNL1        0.0000
     34 H         -23.3972  -23.7175    2.2463 H         1 UNL1        0.0000
     35 H         -22.3542  -23.2950    4.3727 H         1 UNL1        0.0000
     36 H         -23.2154  -21.6861    5.9275 H         1 UNL1        0.0000
     37 H         -25.1189  -18.9744    7.2640 H         1 UNL1        0.0000
     38 H         -23.6872  -19.9240    6.9011 H         1 UNL1        0.0000
     39 H         -26.6203  -19.6400    8.7348 H         1 UNL1        0.0000
     40 H         -29.5435  -19.8228   11.9920 H         1 UNL1        0.0000
     41 H         -30.6396  -20.8876   11.0961 H         1 UNL1        0.0000
     42 H         -31.0586  -18.2693   11.3678 H         1 UNL1        0.0000
     43 H         -31.6055  -19.1946    9.9961 H         1 UNL1        0.0000
     44 H         -28.5924  -18.1705    8.0546 H         1 UNL1        0.0000
     45 H         -30.2146  -18.7603    7.7379 H         1 UNL1        0.0000
     46 H         -27.9907  -20.2777    8.3160 H         1 UNL1        0.0000
     47 H         -29.6846  -20.7995    8.3011 H         1 UNL1        0.0000
     48 H         -30.5188  -15.3299   10.5691 H         1 UNL1        0.0000
     49 H         -28.7271  -14.9554   12.7562 H         1 UNL1        0.0000
     50 H         -27.8313  -16.0945   12.3221 H         1 UNL1        0.0000
     51 H         -30.8464  -16.2801   13.1526 H         1 UNL1        0.0000
     52 H         -30.3155  -17.6529   12.7853 H         1 UNL1        0.0000
     53 H         -24.8082  -24.0921    9.0286 H         1 UNL1        0.0000
     54 H         -23.9729  -22.5363    7.3874 H         1 UNL1        0.0000
     55 H         -27.7729  -19.1779    3.8594 H         1 UNL1        0.0000
@<TRIPOS>BOND
     1    1   18 1
     2    1   21 1
     3    1   17 am
     4    2   19 1
     5    2   20 1
     6    2   22 am
     7    3    4 1
     8    3   12 2
     9    4    5 am
    10    4   55 1
    11    5   29 2
    12    5    6 1
    13    6    7 ar
    14    6   11 ar
    15    7    8 ar
    16    7   33 1
    17    8   34 1
    18    8    9 ar
    19    9   10 ar
    20    9   35 1
    21   10   11 ar
    22   10   36 1
    23   11   12 1
    24   12   13 1
    25   13   37 1
    26   13   38 1
    27   13   14 1
    28   14   15 ar
    29   14   28 ar
    30   15   39 1
    31   15   16 ar
    32   16   26 ar
    33   16   17 1
    34   17   31 2
    35   18   19 1
    36   18   40 1
    37   18   41 1
    38   19   42 1
    39   19   43 1
    40   20   21 1
    41   20   45 1
    42   20   44 1
    43   21   46 1
    44   21   47 1
    45   22   30 2
    46   22   23 1
    47   23   25 1
    48   23   24 1
    49   23   48 1
    50   24   25 1
    51   24   49 1
    52   24   50 1
    53   25   51 1
    54   25   52 1
    55   26   27 ar
    56   26   32 1
    57   27   28 ar
    58   27   53 1
    59   28   54 1
@<TRIPOS>SUBSTRUCTURE
1 UNL1 1
@<TRIPOS>COMMENT
olaparib
PLANTSproteinTorsions
102
4661 76.5860
5386 44.8156
6210 246.4470
5890 111.9429
4461 320.5843
1390 201.1930
2824 191.1369
4339 83.5575
2732 248.9390
4792 64.5857
3407 60.8721
5134 327.7966
6916 91.8054
7370 83.8813
6038 149.4818
7225 4.2623
3592 107.5008
2064 127.8470
2488 321.5999
1253 16.1834
2069 74.4824
2569 263.8656
3058 155.2717
1748 215.6605
1162 267.6902
1509 118.2703
560 199.5596
1627 114.6160
1941 200.3531
3631 160.2864
2381 239.8979
4221 328.9148
4687 108.2645
6983 264.2029
6668 3.5659
7305 88.1256
8693 92.0768
8404 51.9838
9055 95.2882
7052 223.9366
4708 301.2969
2652 11.8127
4332 129.1320
3011 239.4480
2257 37.6154
2778 185.4094
2057 229.9243
192 189.1715
315 228.3965
1085 122.8252
1007 65.5580
1407 210.5694
4816 133.4943
3131 133.1004
4654 327.0831
5144 192.6732
117 81.5479
6 256.6547
259 230.1166
1979 269.3723
2609 26.0246
2623 210.3637
5910 223.6070
5937 122.0578
2062 291.6831
890 201.8760
5008 317.8156
8602 188.8577
8478 66.3970
8300 243.4043
7721 116.2193
8466 163.8412
7852 281.1770
5849 76.6360
6302 82.5475
7439 339.7695
6284 263.3686
6003 193.7338
7165 3.5324
7623 145.7733
8158 213.1586
8667 345.4869
9078 180.4375
8684 195.0627
7666 131.5973
4231 265.1146
1659 124.0245
489 2.4280
238 155.5521
46 252.7335
83 241.3156
254 212.8836
1066 115.9578
2112 264.0872
4047 260.3315
5402 10.3734
2544 168.1228
4670 6.1811
4426 266.9314
5656 190.7303
7040 82.3393
6282 255.8140
PLANTSmolcadARTstart hb
PLANTSmolcadARTstart HB
LINES
PLANTSmolcadARTstart HBCH
LINES
PLANTSmolcadARTstart HB-CHO
LINES
PLANTSmolcadARTend
PLANTSmolcadARTstart HB_WATER
LINES
PLANTSmolcadARTend

PLANTSmolcadARTend

