@<TRIPOS>MOLECULE
olaparib_entry_00001_conf_36
55 59 1
SMALL
NO_CHARGES


@<TRIPOS>ATOM
      1 N         -15.4347  -44.8789   -3.1589 N.am      1 UNL1        0.0000
      2 N         -14.8525  -44.7343   -5.6865 N.am      1 UNL1        0.0000
      3 N         -15.5827  -38.4245    0.0938 N.2       1 UNL1        0.0000
      4 N         -15.9482  -37.1962    0.3700 N.am      1 UNL1        0.0000
      5 C         -16.8943  -36.8958    1.2708 C.2       1 UNL1        0.0000
      6 C         -17.5196  -37.9246    1.9447 C.ar      1 UNL1        0.0000
      7 C         -18.5250  -37.6688    2.8779 C.ar      1 UNL1        0.0000
      8 C         -19.1507  -38.7135    3.5234 C.ar      1 UNL1        0.0000
      9 C         -18.7355  -39.9877    3.1989 C.ar      1 UNL1        0.0000
     10 C         -17.7395  -40.2561    2.2748 C.ar      1 UNL1        0.0000
     11 C         -17.1250  -39.2151    1.6435 C.ar      1 UNL1        0.0000
     12 C         -16.1548  -39.4987    0.7200 C.2       1 UNL1        0.0000
     13 C         -15.6124  -40.8051    0.3704 C.3       1 UNL1        0.0000
     14 C         -16.6039  -41.5905   -0.4154 C.ar      1 UNL1        0.0000
     15 C         -16.1371  -42.8132   -0.9299 C.ar      1 UNL1        0.0000
     16 C         -16.9756  -43.6048   -1.6776 C.ar      1 UNL1        0.0000
     17 C         -16.5128  -44.8954   -2.2356 C.2       1 UNL1        0.0000
     18 C         -14.9574  -46.1037   -3.7148 C.3       1 UNL1        0.0000
     19 C         -14.3093  -45.9166   -5.0698 C.3       1 UNL1        0.0000
     20 C         -14.6168  -43.4587   -5.0015 C.3       1 UNL1        0.0000
     21 C         -14.8383  -43.6057   -3.5181 C.3       1 UNL1        0.0000
     22 C         -15.5756  -44.7758   -6.8821 C.2       1 UNL1        0.0000
     23 C         -15.9045  -45.9652   -7.6722 C.3       1 UNL1        0.0000
     24 C         -15.4568  -45.9512   -9.1164 C.3       1 UNL1        0.0000
     25 C         -16.8833  -45.8966   -8.7889 C.3       1 UNL1        0.0000
     26 C         -18.2778  -43.2671   -1.9610 C.ar      1 UNL1        0.0000
     27 C         -18.7336  -42.0700   -1.4570 C.ar      1 UNL1        0.0000
     28 C         -17.8804  -41.2594   -0.6945 C.ar      1 UNL1        0.0000
     29 O         -17.2575  -35.7245    1.5503 O.2       1 UNL1        0.0000
     30 O         -16.0071  -43.6642   -7.3547 O.2       1 UNL1        0.0000
     31 O         -17.0392  -45.9870   -1.9195 O.2       1 UNL1        0.0000
     32 F         -19.0711  -44.0876   -2.7094 F         1 UNL1        0.0000
     33 H         -18.8003  -36.6962    3.0856 H         1 UNL1        0.0000
     34 H         -19.8958  -38.5495    4.2171 H         1 UNL1        0.0000
     35 H         -19.1918  -40.7841    3.6697 H         1 UNL1        0.0000
     36 H         -17.4656  -41.2293    2.0667 H         1 UNL1        0.0000
     37 H         -15.3718  -41.3379    1.2666 H         1 UNL1        0.0000
     38 H         -14.7342  -40.6662   -0.2251 H         1 UNL1        0.0000
     39 H         -15.1676  -43.1151   -0.7468 H         1 UNL1        0.0000
     40 H         -15.7828  -46.7769   -3.8195 H         1 UNL1        0.0000
     41 H         -14.2125  -46.4915   -3.0507 H         1 UNL1        0.0000
     42 H         -14.5107  -46.7682   -5.6850 H         1 UNL1        0.0000
     43 H         -13.2505  -45.8120   -4.9539 H         1 UNL1        0.0000
     44 H         -15.2907  -42.7221   -5.3860 H         1 UNL1        0.0000
     45 H         -13.6042  -43.1567   -5.1704 H         1 UNL1        0.0000
     46 H         -15.4880  -42.8212   -3.1902 H         1 UNL1        0.0000
     47 H         -13.8812  -43.5552   -3.0441 H         1 UNL1        0.0000
     48 H         -15.8035  -46.6013   -6.8181 H         1 UNL1        0.0000
     49 H         -15.0420  -46.8340   -9.5567 H         1 UNL1        0.0000
     50 H         -14.7886  -45.3491   -9.6960 H         1 UNL1        0.0000
     51 H         -17.5086  -46.7390   -8.9996 H         1 UNL1        0.0000
     52 H         -17.6822  -45.2326   -9.0421 H         1 UNL1        0.0000
     53 H         -19.7043  -41.7693   -1.6404 H         1 UNL1        0.0000
     54 H         -18.2472  -40.3665   -0.3287 H         1 UNL1        0.0000
     55 H         -15.5052  -36.4577   -0.1076 H         1 UNL1        0.0000
@<TRIPOS>BOND
     1    1   18 1
     2    1   21 1
     3    1   17 am
     4    2   19 1
     5    2   20 1
     6    2   22 am
     7    3    4 1
     8    3   12 2
     9    4    5 am
    10    4   55 1
    11    5   29 2
    12    5    6 1
    13    6    7 ar
    14    6   11 ar
    15    7    8 ar
    16    7   33 1
    17    8   34 1
    18    8    9 ar
    19    9   10 ar
    20    9   35 1
    21   10   11 ar
    22   10   36 1
    23   11   12 1
    24   12   13 1
    25   13   37 1
    26   13   38 1
    27   13   14 1
    28   14   15 ar
    29   14   28 ar
    30   15   39 1
    31   15   16 ar
    32   16   26 ar
    33   16   17 1
    34   17   31 2
    35   18   19 1
    36   18   40 1
    37   18   41 1
    38   19   42 1
    39   19   43 1
    40   20   21 1
    41   20   45 1
    42   20   44 1
    43   21   46 1
    44   21   47 1
    45   22   30 2
    46   22   23 1
    47   23   25 1
    48   23   24 1
    49   23   48 1
    50   24   25 1
    51   24   49 1
    52   24   50 1
    53   25   51 1
    54   25   52 1
    55   26   27 ar
    56   26   32 1
    57   27   28 ar
    58   27   53 1
    59   28   54 1
@<TRIPOS>SUBSTRUCTURE
1 UNL1 1
@<TRIPOS>COMMENT
olaparib
PLANTSproteinTorsions
102
4661 150.0637
5386 173.5236
6210 201.8033
5890 55.7117
4461 28.9000
1390 16.6498
2824 279.9059
4339 178.2269
2732 239.5771
4792 281.4310
3407 299.9974
5134 17.0140
6916 142.6972
7370 114.9632
6038 201.3858
7225 188.1192
3592 334.5887
2064 212.6014
2488 67.4354
1253 312.3410
2069 119.1305
2569 272.7311
3058 126.1008
1748 278.3542
1162 141.4345
1509 254.1592
560 256.8702
1627 342.2857
1941 124.0582
3631 201.0390
2381 131.8698
4221 288.5464
4687 152.6430
6983 216.0940
6668 27.6836
7305 150.9050
8693 16.0848
8404 43.2810
9055 209.5582
7052 158.2383
4708 209.5796
2652 81.8207
4332 251.1844
3011 353.8563
2257 127.0466
2778 310.0126
2057 255.5021
192 49.4530
315 271.2455
1085 307.2888
1007 144.4343
1407 117.7114
4816 230.4263
3131 133.1049
4654 358.5815
5144 132.8334
117 195.3091
6 281.4484
259 171.1806
1979 201.6508
2609 166.2056
2623 0.4204
5910 154.1524
5937 302.8143
2062 68.4966
890 21.6535
5008 88.5993
8602 51.7260
8478 139.7299
8300 121.4052
7721 45.9940
8466 311.8049
7852 179.6927
5849 184.4563
6302 309.9127
7439 56.0069
6284 218.4302
6003 40.2822
7165 242.0418
7623 105.9379
8158 208.9774
8667 30.7087
9078 143.1220
8684 37.2624
7666 344.6059
4231 161.7419
1659 146.4743
489 200.2254
238 187.3439
46 166.1698
83 211.5873
254 61.8293
1066 259.4242
2112 280.3460
4047 172.8703
5402 234.9159
2544 351.7602
4670 333.8859
4426 95.0152
5656 319.5704
7040 313.7715
6282 264.7429
PLANTSmolcadARTstart hb
PLANTSmolcadARTstart HB
LINES
-16.0071 -43.6642 -7.35474 -17.935 -43.674 -6.593 0 255 0 5
PLANTSmolcadARTstart HBCH
LINES
PLANTSmolcadARTstart HB-CHO
LINES
PLANTSmolcadARTend
PLANTSmolcadARTstart HB_WATER
LINES
PLANTSmolcadARTend

PLANTSmolcadARTend

