@<TRIPOS>MOLECULE
olaparib_entry_00001_conf_12
55 59 1
SMALL
NO_CHARGES


@<TRIPOS>ATOM
      1 N          -0.1767  -70.3415    8.5058 N.am      1 UNL1        0.0000
      2 N          -0.3915  -68.0136    9.6385 N.am      1 UNL1        0.0000
      3 N          -6.5482  -73.6243    8.1932 N.2       1 UNL1        0.0000
      4 N          -7.5258  -74.4875    8.0596 N.am      1 UNL1        0.0000
      5 C          -8.3685  -74.8033    9.0530 C.2       1 UNL1        0.0000
      6 C          -8.2054  -74.1942   10.2803 C.ar      1 UNL1        0.0000
      7 C          -9.0421  -74.5013   11.3540 C.ar      1 UNL1        0.0000
      8 C          -8.8471  -73.8962   12.5769 C.ar      1 UNL1        0.0000
      9 C          -7.8054  -72.9978   12.6711 C.ar      1 UNL1        0.0000
     10 C          -6.9673  -72.6839   11.6142 C.ar      1 UNL1        0.0000
     11 C          -7.1704  -73.2863   10.4076 C.ar      1 UNL1        0.0000
     12 C          -6.3220  -72.9779    9.3782 C.2       1 UNL1        0.0000
     13 C          -5.2462  -71.9953    9.3746 C.3       1 UNL1        0.0000
     14 C          -3.9928  -72.5930    8.8368 C.ar      1 UNL1        0.0000
     15 C          -2.9998  -71.6741    8.4530 C.ar      1 UNL1        0.0000
     16 C          -1.8110  -72.1292    7.9352 C.ar      1 UNL1        0.0000
     17 C          -0.7478  -71.1871    7.5189 C.2       1 UNL1        0.0000
     18 C           0.8542  -69.4233    8.1436 C.3       1 UNL1        0.0000
     19 C           0.9099  -68.2178    9.0573 C.3       1 UNL1        0.0000
     20 C          -0.9128  -69.0841   10.4954 C.3       1 UNL1        0.0000
     21 C          -0.6590  -70.4323    9.8714 C.3       1 UNL1        0.0000
     22 C          -1.1427  -66.8570    9.4101 C.2       1 UNL1        0.0000
     23 C          -0.7679  -65.7137    8.5738 C.3       1 UNL1        0.0000
     24 C          -1.8051  -64.6227    8.4321 C.3       1 UNL1        0.0000
     25 C          -1.4516  -65.4544    7.2795 C.3       1 UNL1        0.0000
     26 C          -1.5238  -73.4629    7.7649 C.ar      1 UNL1        0.0000
     27 C          -2.4965  -74.3614    8.1409 C.ar      1 UNL1        0.0000
     28 C          -3.7111  -73.9004    8.6687 C.ar      1 UNL1        0.0000
     29 O          -9.3123  -75.6273    8.9439 O.2       1 UNL1        0.0000
     30 O          -2.2861  -66.7677    9.9845 O.2       1 UNL1        0.0000
     31 O          -0.3433  -71.1167    6.3356 O.2       1 UNL1        0.0000
     32 F          -0.3275  -73.8648    7.2451 F         1 UNL1        0.0000
     33 H          -9.8083  -75.1817   11.2323 H         1 UNL1        0.0000
     34 H          -9.4525  -74.1065   13.3848 H         1 UNL1        0.0000
     35 H          -7.6413  -72.5347   13.5781 H         1 UNL1        0.0000
     36 H          -6.2004  -72.0041   11.7369 H         1 UNL1        0.0000
     37 H          -5.0742  -71.6575   10.3752 H         1 UNL1        0.0000
     38 H          -5.5308  -71.1740    8.7502 H         1 UNL1        0.0000
     39 H          -3.1635  -70.6610    8.5597 H         1 UNL1        0.0000
     40 H           0.6775  -69.0873    7.1430 H         1 UNL1        0.0000
     41 H           1.7894  -69.9373    8.2289 H         1 UNL1        0.0000
     42 H           1.1923  -67.3532    8.4944 H         1 UNL1        0.0000
     43 H           1.6313  -68.3821    9.8306 H         1 UNL1        0.0000
     44 H          -1.9662  -68.9501   10.6258 H         1 UNL1        0.0000
     45 H          -0.4154  -69.0434   11.4419 H         1 UNL1        0.0000
     46 H          -1.5740  -70.9872    9.8728 H         1 UNL1        0.0000
     47 H           0.1010  -70.9149   10.4481 H         1 UNL1        0.0000
     48 H           0.2590  -65.7974    8.8615 H         1 UNL1        0.0000
     49 H          -1.5082  -63.5949    8.4618 H         1 UNL1        0.0000
     50 H          -2.7154  -64.3734    8.9362 H         1 UNL1        0.0000
     51 H          -0.9036  -65.0276    6.4655 H         1 UNL1        0.0000
     52 H          -2.0096  -66.0577    6.5955 H         1 UNL1        0.0000
     53 H          -2.3312  -75.3750    8.0342 H         1 UNL1        0.0000
     54 H          -4.4237  -74.5953    8.9424 H         1 UNL1        0.0000
     55 H          -7.6472  -74.9251    7.1858 H         1 UNL1        0.0000
@<TRIPOS>BOND
     1    1   18 1
     2    1   21 1
     3    1   17 am
     4    2   19 1
     5    2   20 1
     6    2   22 am
     7    3    4 1
     8    3   12 2
     9    4    5 am
    10    4   55 1
    11    5   29 2
    12    5    6 1
    13    6    7 ar
    14    6   11 ar
    15    7    8 ar
    16    7   33 1
    17    8   34 1
    18    8    9 ar
    19    9   10 ar
    20    9   35 1
    21   10   11 ar
    22   10   36 1
    23   11   12 1
    24   12   13 1
    25   13   37 1
    26   13   38 1
    27   13   14 1
    28   14   15 ar
    29   14   28 ar
    30   15   39 1
    31   15   16 ar
    32   16   26 ar
    33   16   17 1
    34   17   31 2
    35   18   19 1
    36   18   40 1
    37   18   41 1
    38   19   42 1
    39   19   43 1
    40   20   21 1
    41   20   45 1
    42   20   44 1
    43   21   46 1
    44   21   47 1
    45   22   30 2
    46   22   23 1
    47   23   25 1
    48   23   24 1
    49   23   48 1
    50   24   25 1
    51   24   49 1
    52   24   50 1
    53   25   51 1
    54   25   52 1
    55   26   27 ar
    56   26   32 1
    57   27   28 ar
    58   27   53 1
    59   28   54 1
@<TRIPOS>SUBSTRUCTURE
1 UNL1 1
@<TRIPOS>COMMENT
olaparib
PLANTSproteinTorsions
102
4661 109.9601
5386 56.9128
6210 133.8362
5890 246.3639
4461 101.7301
1390 35.8978
2824 115.5380
4339 173.2321
2732 13.6573
4792 286.1777
3407 34.7980
5134 3.7372
6916 89.2608
7370 326.5943
6038 166.3430
7225 116.8795
3592 4.5066
2064 47.9582
2488 231.7262
1253 83.4191
2069 40.5637
2569 52.8011
3058 260.5974
1748 122.3751
1162 36.7919
1509 112.8558
560 176.8108
1627 65.2111
1941 197.3382
3631 150.6309
2381 225.5994
4221 52.2796
4687 187.2760
6983 71.2252
6668 259.1545
7305 108.8667
8693 169.4718
8404 12.9370
9055 245.4292
7052 209.4489
4708 58.7121
2652 177.5305
4332 55.2186
3011 195.7153
2257 231.6826
2778 37.4253
2057 206.8419
192 351.5137
315 162.4505
1085 320.4825
1007 37.0600
1407 140.0286
4816 296.1868
3131 209.3062
4654 113.6270
5144 215.7004
117 295.5067
6 41.5405
259 22.0988
1979 168.5719
2609 21.1201
2623 198.5583
5910 160.1561
5937 203.7219
2062 261.1540
890 44.8146
5008 150.1862
8602 121.5968
8478 78.2689
8300 206.5169
7721 142.4520
8466 157.5427
7852 233.5039
5849 240.0446
6302 171.3696
7439 268.0469
6284 74.9905
6003 310.7747
7165 250.7127
7623 137.1971
8158 163.6154
8667 145.4396
9078 85.4514
8684 257.2857
7666 219.8136
4231 255.8391
1659 256.7481
489 109.7009
238 263.3659
46 329.6693
83 330.6718
254 47.6046
1066 256.4861
2112 223.5768
4047 254.1763
5402 208.6210
2544 146.2259
4670 254.3586
4426 136.5484
5656 214.2380
7040 174.4252
6282 89.2022
PLANTSmolcadARTstart hb
PLANTSmolcadARTstart HB
LINES
-2.28607 -66.7677 9.98448 -3.71393 -66.7667 9.1922 0 255 0 5
PLANTSmolcadARTstart HBCH
LINES
PLANTSmolcadARTstart HB-CHO
LINES
PLANTSmolcadARTend
PLANTSmolcadARTstart HB_WATER
LINES
PLANTSmolcadARTend

PLANTSmolcadARTend

