@<TRIPOS>MOLECULE
olaparib_entry_00001_conf_88
55 59 1
SMALL
NO_CHARGES


@<TRIPOS>ATOM
      1 N         -46.4262  -58.1083  -18.4244 N.am      1 UNL1        0.0000
      2 N         -44.9986  -58.5919  -20.5402 N.am      1 UNL1        0.0000
      3 N         -41.9531  -55.3340  -15.7934 N.2       1 UNL1        0.0000
      4 N         -41.0376  -55.2929  -16.7308 N.am      1 UNL1        0.0000
      5 C         -40.0759  -56.2177  -16.8601 C.2       1 UNL1        0.0000
      6 C         -40.0408  -57.2680  -15.9660 C.ar      1 UNL1        0.0000
      7 C         -39.0496  -58.2471  -16.0430 C.ar      1 UNL1        0.0000
      8 C         -39.0216  -59.2756  -15.1259 C.ar      1 UNL1        0.0000
      9 C         -40.0024  -59.2761  -14.1568 C.ar      1 UNL1        0.0000
     10 C         -40.9916  -58.3110  -14.0683 C.ar      1 UNL1        0.0000
     11 C         -41.0119  -57.2990  -14.9822 C.ar      1 UNL1        0.0000
     12 C         -41.9860  -56.3435  -14.8698 C.2       1 UNL1        0.0000
     13 C         -43.0932  -56.3073  -13.9233 C.3       1 UNL1        0.0000
     14 C         -44.1924  -57.2078  -14.3685 C.ar      1 UNL1        0.0000
     15 C         -44.8296  -56.8390  -15.5667 C.ar      1 UNL1        0.0000
     16 C         -45.8635  -57.6021  -16.0538 C.ar      1 UNL1        0.0000
     17 C         -46.5564  -57.2382  -17.3104 C.2       1 UNL1        0.0000
     18 C         -47.0835  -57.7935  -19.6516 C.3       1 UNL1        0.0000
     19 C         -46.3890  -58.3918  -20.8561 C.3       1 UNL1        0.0000
     20 C         -44.6915  -59.5275  -19.4529 C.3       1 UNL1        0.0000
     21 C         -45.6211  -59.3077  -18.2872 C.3       1 UNL1        0.0000
     22 C         -43.9713  -57.9350  -21.2237 C.2       1 UNL1        0.0000
     23 C         -44.1166  -56.9679  -22.3149 C.3       1 UNL1        0.0000
     24 C         -44.2165  -57.5453  -23.7088 C.3       1 UNL1        0.0000
     25 C         -43.0349  -56.7741  -23.3160 C.3       1 UNL1        0.0000
     26 C         -46.3259  -58.7346  -15.4263 C.ar      1 UNL1        0.0000
     27 C         -45.7015  -59.0946  -14.2535 C.ar      1 UNL1        0.0000
     28 C         -44.6469  -58.3176  -13.7531 C.ar      1 UNL1        0.0000
     29 O         -39.1903  -56.1962  -17.7528 O.2       1 UNL1        0.0000
     30 O         -42.7646  -58.1918  -20.8726 O.2       1 UNL1        0.0000
     31 O         -47.2454  -56.1976  -17.4160 O.2       1 UNL1        0.0000
     32 F         -47.3572  -59.4588  -15.9504 F         1 UNL1        0.0000
     33 H         -38.3368  -58.2017  -16.7879 H         1 UNL1        0.0000
     34 H         -38.2995  -60.0109  -15.1627 H         1 UNL1        0.0000
     35 H         -39.9988  -60.0365  -13.4597 H         1 UNL1        0.0000
     36 H         -41.7035  -58.3565  -13.3223 H         1 UNL1        0.0000
     37 H         -43.4645  -55.3062  -13.8536 H         1 UNL1        0.0000
     38 H         -42.7421  -56.6395  -12.9684 H         1 UNL1        0.0000
     39 H         -44.5219  -55.9976  -16.0785 H         1 UNL1        0.0000
     40 H         -47.1084  -56.7294  -19.7636 H         1 UNL1        0.0000
     41 H         -48.0688  -58.2096  -19.6065 H         1 UNL1        0.0000
     42 H         -46.4766  -57.7260  -21.6887 H         1 UNL1        0.0000
     43 H         -46.8426  -59.3278  -21.1082 H         1 UNL1        0.0000
     44 H         -43.6826  -59.3755  -19.1311 H         1 UNL1        0.0000
     45 H         -44.8182  -60.5280  -19.8107 H         1 UNL1        0.0000
     46 H         -45.0365  -59.2248  -17.3948 H         1 UNL1        0.0000
     47 H         -46.2907  -60.1404  -18.2493 H         1 UNL1        0.0000
     48 H         -44.6741  -56.2996  -21.6929 H         1 UNL1        0.0000
     49 H         -44.9146  -57.1358  -24.4089 H         1 UNL1        0.0000
     50 H         -44.3844  -58.5214  -24.1136 H         1 UNL1        0.0000
     51 H         -42.8695  -55.8049  -23.7383 H         1 UNL1        0.0000
     52 H         -41.9828  -56.9643  -23.3251 H         1 UNL1        0.0000
     53 H         -46.0100  -59.9372  -13.7426 H         1 UNL1        0.0000
     54 H         -44.1962  -58.6096  -12.8715 H         1 UNL1        0.0000
     55 H         -41.0578  -54.5457  -17.3720 H         1 UNL1        0.0000
@<TRIPOS>BOND
     1    1   18 1
     2    1   21 1
     3    1   17 am
     4    2   19 1
     5    2   20 1
     6    2   22 am
     7    3    4 1
     8    3   12 2
     9    4    5 am
    10    4   55 1
    11    5   29 2
    12    5    6 1
    13    6    7 ar
    14    6   11 ar
    15    7    8 ar
    16    7   33 1
    17    8   34 1
    18    8    9 ar
    19    9   10 ar
    20    9   35 1
    21   10   11 ar
    22   10   36 1
    23   11   12 1
    24   12   13 1
    25   13   37 1
    26   13   38 1
    27   13   14 1
    28   14   15 ar
    29   14   28 ar
    30   15   39 1
    31   15   16 ar
    32   16   26 ar
    33   16   17 1
    34   17   31 2
    35   18   19 1
    36   18   40 1
    37   18   41 1
    38   19   42 1
    39   19   43 1
    40   20   21 1
    41   20   45 1
    42   20   44 1
    43   21   46 1
    44   21   47 1
    45   22   30 2
    46   22   23 1
    47   23   25 1
    48   23   24 1
    49   23   48 1
    50   24   25 1
    51   24   49 1
    52   24   50 1
    53   25   51 1
    54   25   52 1
    55   26   27 ar
    56   26   32 1
    57   27   28 ar
    58   27   53 1
    59   28   54 1
@<TRIPOS>SUBSTRUCTURE
1 UNL1 1
@<TRIPOS>COMMENT
olaparib
PLANTSproteinTorsions
102
4661 11.7695
5386 66.6729
6210 29.5225
5890 140.1755
4461 4.5769
1390 35.7728
2824 111.3655
4339 156.3202
2732 12.3078
4792 325.4245
3407 255.5609
5134 15.0660
6916 207.6193
7370 119.7081
6038 82.5486
7225 125.5272
3592 65.1230
2064 92.1024
2488 353.6854
1253 6.7443
2069 249.2853
2569 1.8584
3058 91.0393
1748 229.4690
1162 61.1655
1509 131.1063
560 199.3280
1627 171.2774
1941 267.9505
3631 179.8577
2381 222.7381
4221 41.7728
4687 243.4702
6983 101.3613
6668 139.5535
7305 220.7554
8693 180.5377
8404 8.1725
9055 4.8232
7052 62.2909
4708 50.8267
2652 208.5296
4332 213.6501
3011 155.9937
2257 270.7179
2778 16.2620
2057 27.1064
192 77.0435
315 140.9080
1085 216.0741
1007 4.2266
1407 227.5533
4816 197.2457
3131 241.0244
4654 138.8974
5144 268.7694
117 220.1072
6 221.0905
259 109.4471
1979 276.7458
2609 326.2790
2623 217.3386
5910 179.7298
5937 11.6722
2062 70.3122
890 20.7824
5008 160.0748
8602 303.8294
8478 208.1787
8300 233.9978
7721 265.8281
8466 257.8748
7852 211.5217
5849 76.3072
6302 18.8939
7439 292.5018
6284 219.1778
6003 65.9305
7165 263.0264
7623 107.9604
8158 259.4702
8667 31.5094
9078 41.5652
8684 190.7904
7666 102.7614
4231 81.2878
1659 215.2039
489 185.0258
238 263.1404
46 42.3989
83 331.1425
254 262.3839
1066 218.6369
2112 103.6664
4047 255.2805
5402 236.5047
2544 269.0070
4670 224.0233
4426 59.3610
5656 182.5303
7040 182.9666
6282 279.3248
PLANTSmolcadARTstart hb
PLANTSmolcadARTstart HB
LINES
-47.2454 -56.1976 -17.416 -48.958 -56.853 -16.406 0 255 0 5
-47.2454 -56.1976 -17.416 -48.965 -54.951 -18.265 0 255 0 5
PLANTSmolcadARTstart HBCH
LINES
PLANTSmolcadARTstart HB-CHO
LINES
PLANTSmolcadARTend
PLANTSmolcadARTstart HB_WATER
LINES
PLANTSmolcadARTend

PLANTSmolcadARTend

