@<TRIPOS>MOLECULE
olaparib_entry_00001_conf_16
55 59 1
SMALL
NO_CHARGES


@<TRIPOS>ATOM
      1 N          -8.1067  -56.4601    9.3035 N.am      1 UNL1        0.0000
      2 N          -6.9686  -54.7162    7.7505 N.am      1 UNL1        0.0000
      3 N          -4.0274  -58.6505    7.7622 N.2       1 UNL1        0.0000
      4 N          -3.8584  -58.2002    6.5427 N.am      1 UNL1        0.0000
      5 C          -3.5464  -58.9888    5.5046 C.2       1 UNL1        0.0000
      6 C          -3.3934  -60.3426    5.7222 C.ar      1 UNL1        0.0000
      7 C          -3.0493  -61.2055    4.6809 C.ar      1 UNL1        0.0000
      8 C          -2.8808  -62.5513    4.9259 C.ar      1 UNL1        0.0000
      9 C          -3.0660  -62.9787    6.2237 C.ar      1 UNL1        0.0000
     10 C          -3.4071  -62.1337    7.2666 C.ar      1 UNL1        0.0000
     11 C          -3.5740  -60.8041    7.0130 C.ar      1 UNL1        0.0000
     12 C          -3.8939  -59.9800    8.0584 C.2       1 UNL1        0.0000
     13 C          -4.1727  -60.3582    9.4377 C.3       1 UNL1        0.0000
     14 C          -5.6241  -60.2129    9.7373 C.ar      1 UNL1        0.0000
     15 C          -6.0729  -58.8947    9.9335 C.ar      1 UNL1        0.0000
     16 C          -7.3951  -58.6592   10.2255 C.ar      1 UNL1        0.0000
     17 C          -7.8973  -57.2834   10.4407 C.2       1 UNL1        0.0000
     18 C          -8.5947  -55.1294    9.4706 C.3       1 UNL1        0.0000
     19 C          -8.1788  -54.2090    8.3432 C.3       1 UNL1        0.0000
     20 C          -7.0402  -56.0389    7.1203 C.3       1 UNL1        0.0000
     21 C          -7.8173  -56.9965    7.9865 C.3       1 UNL1        0.0000
     22 C          -5.7684  -53.9995    7.7638 C.2       1 UNL1        0.0000
     23 C          -5.5352  -52.6823    8.3619 C.3       1 UNL1        0.0000
     24 C          -6.1726  -51.5070    7.6559 C.3       1 UNL1        0.0000
     25 C          -4.7157  -51.6578    7.6631 C.3       1 UNL1        0.0000
     26 C          -8.3318  -59.6589   10.3402 C.ar      1 UNL1        0.0000
     27 C          -7.8912  -60.9489   10.1480 C.ar      1 UNL1        0.0000
     28 C          -6.5427  -61.1927    9.8509 C.ar      1 UNL1        0.0000
     29 O          -3.3816  -58.5759    4.3280 O.2       1 UNL1        0.0000
     30 O          -4.7498  -54.5353    7.1977 O.2       1 UNL1        0.0000
     31 O          -8.1397  -56.8320   11.5836 O.2       1 UNL1        0.0000
     32 F          -9.6340  -59.3736   10.6327 F         1 UNL1        0.0000
     33 H          -2.9215  -60.8359    3.7259 H         1 UNL1        0.0000
     34 H          -2.6272  -63.2085    4.1728 H         1 UNL1        0.0000
     35 H          -2.9434  -63.9822    6.4289 H         1 UNL1        0.0000
     36 H          -3.5337  -62.5039    8.2217 H         1 UNL1        0.0000
     37 H          -3.6124  -59.7276   10.0960 H         1 UNL1        0.0000
     38 H          -3.8935  -61.3817    9.5783 H         1 UNL1        0.0000
     39 H          -5.4114  -58.1064    9.8588 H         1 UNL1        0.0000
     40 H          -8.2137  -54.7380   10.3910 H         1 UNL1        0.0000
     41 H          -9.6643  -55.1753    9.4729 H         1 UNL1        0.0000
     42 H          -8.0067  -53.2256    8.7272 H         1 UNL1        0.0000
     43 H          -8.9536  -54.1655    7.6062 H         1 UNL1        0.0000
     44 H          -6.0492  -56.4170    6.9802 H         1 UNL1        0.0000
     45 H          -7.5370  -55.9468    6.1770 H         1 UNL1        0.0000
     46 H          -7.2453  -57.8934    8.1027 H         1 UNL1        0.0000
     47 H          -8.7529  -57.1800    7.5027 H         1 UNL1        0.0000
     48 H          -5.5137  -53.0970    9.3478 H         1 UNL1        0.0000
     49 H          -6.6328  -50.7262    8.2250 H         1 UNL1        0.0000
     50 H          -6.9191  -51.3933    6.8978 H         1 UNL1        0.0000
     51 H          -4.1150  -50.9794    8.2322 H         1 UNL1        0.0000
     52 H          -3.9655  -51.6932    6.9021 H         1 UNL1        0.0000
     53 H          -8.5545  -61.7368   10.2225 H         1 UNL1        0.0000
     54 H          -6.2385  -62.1693    9.7119 H         1 UNL1        0.0000
     55 H          -3.9667  -57.2348    6.3813 H         1 UNL1        0.0000
@<TRIPOS>BOND
     1    1   18 1
     2    1   21 1
     3    1   17 am
     4    2   19 1
     5    2   20 1
     6    2   22 am
     7    3    4 1
     8    3   12 2
     9    4    5 am
    10    4   55 1
    11    5   29 2
    12    5    6 1
    13    6    7 ar
    14    6   11 ar
    15    7    8 ar
    16    7   33 1
    17    8   34 1
    18    8    9 ar
    19    9   10 ar
    20    9   35 1
    21   10   11 ar
    22   10   36 1
    23   11   12 1
    24   12   13 1
    25   13   37 1
    26   13   38 1
    27   13   14 1
    28   14   15 ar
    29   14   28 ar
    30   15   39 1
    31   15   16 ar
    32   16   26 ar
    33   16   17 1
    34   17   31 2
    35   18   19 1
    36   18   40 1
    37   18   41 1
    38   19   42 1
    39   19   43 1
    40   20   21 1
    41   20   45 1
    42   20   44 1
    43   21   46 1
    44   21   47 1
    45   22   30 2
    46   22   23 1
    47   23   25 1
    48   23   24 1
    49   23   48 1
    50   24   25 1
    51   24   49 1
    52   24   50 1
    53   25   51 1
    54   25   52 1
    55   26   27 ar
    56   26   32 1
    57   27   28 ar
    58   27   53 1
    59   28   54 1
@<TRIPOS>SUBSTRUCTURE
1 UNL1 1
@<TRIPOS>COMMENT
olaparib
PLANTSproteinTorsions
102
4661 149.1671
5386 156.5266
6210 30.3175
5890 358.5102
4461 89.3040
1390 211.3930
2824 154.4983
4339 274.2081
2732 321.6624
4792 176.4909
3407 8.5880
5134 112.9991
6916 83.8163
7370 334.4480
6038 137.8743
7225 98.5074
3592 352.2183
2064 106.9006
2488 173.5101
1253 69.3318
2069 315.1986
2569 13.7187
3058 262.2593
1748 148.2180
1162 43.5700
1509 57.2979
560 189.5647
1627 137.3323
1941 53.9928
3631 39.8617
2381 260.0863
4221 52.9264
4687 237.5504
6983 60.4704
6668 129.5831
7305 204.5132
8693 19.0029
8404 29.4404
9055 334.7015
7052 36.9313
4708 50.5865
2652 178.9983
4332 34.2332
3011 152.3891
2257 204.8671
2778 95.3589
2057 244.6468
192 31.8493
315 333.6477
1085 20.3778
1007 355.9536
1407 106.5802
4816 304.2732
3131 327.6968
4654 170.9219
5144 219.2579
117 187.3255
6 90.8322
259 94.0421
1979 126.3139
2609 305.1867
2623 217.9284
5910 71.4010
5937 175.0869
2062 265.2601
890 143.2548
5008 256.4976
8602 85.8572
8478 81.4155
8300 248.6219
7721 178.7084
8466 280.9638
7852 211.1879
5849 217.8302
6302 210.1767
7439 319.0817
6284 358.2796
6003 148.6942
7165 289.1710
7623 39.8353
8158 249.9182
8667 189.5961
9078 87.2528
8684 205.1388
7666 260.3011
4231 52.6888
1659 208.1061
489 175.7436
238 244.1254
46 263.1719
83 226.3688
254 149.5733
1066 195.2645
2112 81.0066
4047 54.3348
5402 206.6825
2544 136.0712
4670 260.1742
4426 248.6823
5656 352.8055
7040 230.0933
6282 182.4226
PLANTSmolcadARTstart hb
PLANTSmolcadARTstart HB
LINES
-3.3816 -58.5759 4.32804 -2.88411 -59.4537 2.66189 0 255 0 5
-3.3816 -58.5759 4.32804 -2.63 -56.738 3.648 0 255 0 5
PLANTSmolcadARTstart HBCH
LINES
PLANTSmolcadARTstart HB-CHO
LINES
PLANTSmolcadARTend
PLANTSmolcadARTstart HB_WATER
LINES
PLANTSmolcadARTend

PLANTSmolcadARTend

