@<TRIPOS>MOLECULE
olaparib_entry_00001_conf_44
55 59 1
SMALL
NO_CHARGES


@<TRIPOS>ATOM
      1 N         -16.4568  -38.6548   -2.2013 N.am      1 UNL1        0.0000
      2 N         -16.6473  -38.4244   -4.7818 N.am      1 UNL1        0.0000
      3 N         -13.9035  -41.9828   -4.1289 N.2       1 UNL1        0.0000
      4 N         -14.6588  -42.2082   -5.1764 N.am      1 UNL1        0.0000
      5 C         -15.1236  -43.4233   -5.4998 C.2       1 UNL1        0.0000
      6 C         -14.7949  -44.4951   -4.6955 C.ar      1 UNL1        0.0000
      7 C         -15.2354  -45.7843   -4.9974 C.ar      1 UNL1        0.0000
      8 C         -14.8769  -46.8434   -4.1915 C.ar      1 UNL1        0.0000
      9 C         -14.0794  -46.5590   -3.1032 C.ar      1 UNL1        0.0000
     10 C         -13.6348  -45.2849   -2.7920 C.ar      1 UNL1        0.0000
     11 C         -13.9974  -44.2435   -3.5944 C.ar      1 UNL1        0.0000
     12 C         -13.5348  -42.9932   -3.2825 C.2       1 UNL1        0.0000
     13 C         -12.7496  -42.5983   -2.1204 C.3       1 UNL1        0.0000
     14 C         -13.6050  -41.8953   -1.1247 C.ar      1 UNL1        0.0000
     15 C         -14.1529  -40.6730   -1.5527 C.ar      1 UNL1        0.0000
     16 C         -14.9480  -39.9447   -0.7006 C.ar      1 UNL1        0.0000
     17 C         -15.5365  -38.6529   -1.1206 C.2       1 UNL1        0.0000
     18 C         -17.0488  -37.4295   -2.6318 C.3       1 UNL1        0.0000
     19 C         -17.4605  -37.4599   -4.0880 C.3       1 UNL1        0.0000
     20 C         -16.7609  -39.8224   -4.3520 C.3       1 UNL1        0.0000
     21 C         -16.7768  -39.9139   -2.8478 C.3       1 UNL1        0.0000
     22 C         -15.7811  -38.0683   -5.8196 C.2       1 UNL1        0.0000
     23 C         -15.5474  -36.7224   -6.3498 C.3       1 UNL1        0.0000
     24 C         -16.4431  -36.2894   -7.4883 C.3       1 UNL1        0.0000
     25 C         -15.0163  -36.5217   -7.7236 C.3       1 UNL1        0.0000
     26 C         -15.2501  -40.3478    0.5785 C.ar      1 UNL1        0.0000
     27 C         -14.7131  -41.5445    0.9965 C.ar      1 UNL1        0.0000
     28 C         -13.9006  -42.2896    0.1300 C.ar      1 UNL1        0.0000
     29 O         -15.8500  -43.6590   -6.4991 O.2       1 UNL1        0.0000
     30 O         -15.1087  -39.0055   -6.3808 O.2       1 UNL1        0.0000
     31 O         -15.2486  -37.5726   -0.5558 O.2       1 UNL1        0.0000
     32 F         -16.0447  -39.5880    1.3872 F         1 UNL1        0.0000
     33 H         -15.8309  -45.9452   -5.8247 H         1 UNL1        0.0000
     34 H         -15.1904  -47.8047   -4.3937 H         1 UNL1        0.0000
     35 H         -13.7985  -47.3377   -2.4877 H         1 UNL1        0.0000
     36 H         -13.0383  -45.1250   -1.9650 H         1 UNL1        0.0000
     37 H         -11.9625  -41.9441   -2.4328 H         1 UNL1        0.0000
     38 H         -12.3421  -43.4766   -1.6643 H         1 UNL1        0.0000
     39 H         -13.9581  -40.3236   -2.5038 H         1 UNL1        0.0000
     40 H         -16.3404  -36.6394   -2.4921 H         1 UNL1        0.0000
     41 H         -17.9332  -37.2754   -2.0486 H         1 UNL1        0.0000
     42 H         -17.3196  -36.4921   -4.5215 H         1 UNL1        0.0000
     43 H         -18.4928  -37.7311   -4.1672 H         1 UNL1        0.0000
     44 H         -15.9268  -40.3762   -4.7289 H         1 UNL1        0.0000
     45 H         -17.6754  -40.2282   -4.7315 H         1 UNL1        0.0000
     46 H         -16.0580  -40.6454   -2.5424 H         1 UNL1        0.0000
     47 H         -17.7689  -40.1823   -2.5531 H         1 UNL1        0.0000
     48 H         -15.2584  -36.3572   -5.3868 H         1 UNL1        0.0000
     49 H         -16.8345  -35.2936   -7.5124 H         1 UNL1        0.0000
     50 H         -17.3518  -36.6560   -7.9183 H         1 UNL1        0.0000
     51 H         -14.3705  -35.6932   -7.9276 H         1 UNL1        0.0000
     52 H         -14.4619  -37.1297   -8.4063 H         1 UNL1        0.0000
     53 H         -14.9093  -41.8933    1.9484 H         1 UNL1        0.0000
     54 H         -13.5103  -43.1833    0.4685 H         1 UNL1        0.0000
     55 H         -14.8970  -41.4470   -5.7539 H         1 UNL1        0.0000
@<TRIPOS>BOND
     1    1   18 1
     2    1   21 1
     3    1   17 am
     4    2   19 1
     5    2   20 1
     6    2   22 am
     7    3    4 1
     8    3   12 2
     9    4    5 am
    10    4   55 1
    11    5   29 2
    12    5    6 1
    13    6    7 ar
    14    6   11 ar
    15    7    8 ar
    16    7   33 1
    17    8   34 1
    18    8    9 ar
    19    9   10 ar
    20    9   35 1
    21   10   11 ar
    22   10   36 1
    23   11   12 1
    24   12   13 1
    25   13   37 1
    26   13   38 1
    27   13   14 1
    28   14   15 ar
    29   14   28 ar
    30   15   39 1
    31   15   16 ar
    32   16   26 ar
    33   16   17 1
    34   17   31 2
    35   18   19 1
    36   18   40 1
    37   18   41 1
    38   19   42 1
    39   19   43 1
    40   20   21 1
    41   20   45 1
    42   20   44 1
    43   21   46 1
    44   21   47 1
    45   22   30 2
    46   22   23 1
    47   23   25 1
    48   23   24 1
    49   23   48 1
    50   24   25 1
    51   24   49 1
    52   24   50 1
    53   25   51 1
    54   25   52 1
    55   26   27 ar
    56   26   32 1
    57   27   28 ar
    58   27   53 1
    59   28   54 1
@<TRIPOS>SUBSTRUCTURE
1 UNL1 1
@<TRIPOS>COMMENT
olaparib
PLANTSproteinTorsions
102
4661 78.3812
5386 28.6732
6210 213.1162
5890 281.6019
4461 17.3215
1390 213.0752
2824 43.9824
4339 163.6622
2732 201.8170
4792 29.5569
3407 23.3032
5134 260.1095
6916 6.5951
7370 205.0989
6038 231.8291
7225 30.0929
3592 239.1284
2064 57.7671
2488 181.0955
1253 235.4788
2069 125.2432
2569 142.7757
3058 249.2553
1748 15.9767
1162 318.5870
1509 46.3791
560 88.3637
1627 104.1627
1941 323.2612
3631 93.1620
2381 71.9270
4221 242.8943
4687 208.1004
6983 230.9190
6668 127.1071
7305 62.0031
8693 126.6639
8404 283.0675
9055 124.2568
7052 112.7756
4708 202.2980
2652 13.3420
4332 284.2316
3011 29.5235
2257 164.0398
2778 153.0223
2057 217.2447
192 33.5844
315 251.2335
1085 292.2472
1007 75.8717
1407 318.2280
4816 162.0830
3131 161.2744
4654 338.7072
5144 10.4779
117 88.3927
6 96.9785
259 117.8556
1979 89.4515
2609 181.4705
2623 39.4268
5910 341.9046
5937 35.0674
2062 148.2254
890 130.7297
5008 193.1241
8602 277.2539
8478 92.5442
8300 51.3430
7721 263.3976
8466 296.5935
7852 156.4026
5849 184.6906
6302 297.9961
7439 221.6569
6284 121.3117
6003 254.8212
7165 103.5203
7623 285.5016
8158 147.5802
8667 291.9346
9078 306.3194
8684 161.7764
7666 268.1472
4231 123.2582
1659 210.4279
489 298.6640
238 227.5166
46 157.3365
83 155.3990
254 238.5144
1066 152.5054
2112 149.9520
4047 268.2729
5402 259.1783
2544 266.5191
4670 94.1311
4426 98.2688
5656 168.8093
7040 68.9105
6282 118.9589
PLANTSmolcadARTstart hb
PLANTSmolcadARTstart HB
LINES
-13.9035 -41.9828 -4.12891 -12.228 -40.893 -4.598 0 255 0 5
-15.85 -43.659 -6.49907 -17.935 -43.674 -6.593 0 255 0 5
PLANTSmolcadARTstart HBCH
LINES
PLANTSmolcadARTstart HB-CHO
LINES
PLANTSmolcadARTend
PLANTSmolcadARTstart HB_WATER
LINES
PLANTSmolcadARTend

PLANTSmolcadARTend

