@<TRIPOS>MOLECULE
olaparib_entry_00001_conf_62
55 59 1
SMALL
NO_CHARGES


@<TRIPOS>ATOM
      1 N         -23.4439  -31.3003    3.3637 N.am      1 UNL1        0.0000
      2 N         -20.9113  -31.0857    2.8269 N.am      1 UNL1        0.0000
      3 N         -24.8439  -37.5167    1.9965 N.2       1 UNL1        0.0000
      4 N         -24.4827  -38.4079    2.8876 N.am      1 UNL1        0.0000
      5 C         -23.2044  -38.6429    3.2157 C.2       1 UNL1        0.0000
      6 C         -22.2138  -37.9154    2.5888 C.ar      1 UNL1        0.0000
      7 C         -20.8664  -38.1340    2.8782 C.ar      1 UNL1        0.0000
      8 C         -19.8929  -37.4103    2.2239 C.ar      1 UNL1        0.0000
      9 C         -20.3197  -36.4867    1.2933 C.ar      1 UNL1        0.0000
     10 C         -21.6530  -36.2597    0.9959 C.ar      1 UNL1        0.0000
     11 C         -22.6086  -36.9793    1.6509 C.ar      1 UNL1        0.0000
     12 C         -23.9211  -36.7550    1.3323 C.2       1 UNL1        0.0000
     13 C         -24.4572  -35.7563    0.4167 C.3       1 UNL1        0.0000
     14 C         -25.2476  -34.7358    1.1592 C.ar      1 UNL1        0.0000
     15 C         -24.5257  -33.9739    2.0951 C.ar      1 UNL1        0.0000
     16 C         -25.1702  -33.0136    2.8374 C.ar      1 UNL1        0.0000
     17 C         -24.4386  -32.1978    3.8328 C.2       1 UNL1        0.0000
     18 C         -22.7208  -30.4935    4.2928 C.3       1 UNL1        0.0000
     19 C         -21.3498  -30.1032    3.7838 C.3       1 UNL1        0.0000
     20 C         -21.7140  -31.2313    1.6077 C.3       1 UNL1        0.0000
     21 C         -23.1843  -31.2238    1.9381 C.3       1 UNL1        0.0000
     22 C         -19.7767  -31.8768    3.0293 C.2       1 UNL1        0.0000
     23 C         -18.8864  -31.8594    4.1931 C.3       1 UNL1        0.0000
     24 C         -18.0970  -30.5882    4.4098 C.3       1 UNL1        0.0000
     25 C         -17.4096  -31.8237    4.0275 C.3       1 UNL1        0.0000
     26 C         -26.5129  -32.7434    2.7184 C.ar      1 UNL1        0.0000
     27 C         -27.2186  -33.4898    1.8020 C.ar      1 UNL1        0.0000
     28 C         -26.5642  -34.4712    1.0437 C.ar      1 UNL1        0.0000
     29 O         -22.8385  -39.4920    4.0683 O.2       1 UNL1        0.0000
     30 O         -19.4646  -32.7150    2.1099 O.2       1 UNL1        0.0000
     31 O         -24.6704  -32.2765    5.0611 O.2       1 UNL1        0.0000
     32 F         -27.1073  -31.7791    3.4796 F         1 UNL1        0.0000
     33 H         -20.5982  -38.8379    3.5836 H         1 UNL1        0.0000
     34 H         -18.8909  -37.5536    2.4211 H         1 UNL1        0.0000
     35 H         -19.6070  -35.9352    0.7912 H         1 UNL1        0.0000
     36 H         -21.9205  -35.5563    0.2895 H         1 UNL1        0.0000
     37 H         -25.0892  -36.2384   -0.2997 H         1 UNL1        0.0000
     38 H         -23.6429  -35.2679   -0.0770 H         1 UNL1        0.0000
     39 H         -23.5149  -34.1357    2.2244 H         1 UNL1        0.0000
     40 H         -22.6047  -31.0417    5.2046 H         1 UNL1        0.0000
     41 H         -23.2792  -29.5923    4.4414 H         1 UNL1        0.0000
     42 H         -20.6607  -30.0644    4.6010 H         1 UNL1        0.0000
     43 H         -21.3960  -29.1398    3.3199 H         1 UNL1        0.0000
     44 H         -21.4659  -32.1561    1.1304 H         1 UNL1        0.0000
     45 H         -21.5034  -30.4105    0.9542 H         1 UNL1        0.0000
     46 H         -23.6457  -32.0642    1.4627 H         1 UNL1        0.0000
     47 H         -23.5871  -30.2971    1.5884 H         1 UNL1        0.0000
     48 H         -19.5509  -32.4839    4.7524 H         1 UNL1        0.0000
     49 H         -17.9788  -30.1934    5.3974 H         1 UNL1        0.0000
     50 H         -18.1416  -29.5933    4.0184 H         1 UNL1        0.0000
     51 H         -16.7834  -32.3236    4.7367 H         1 UNL1        0.0000
     52 H         -16.7398  -32.0914    3.2382 H         1 UNL1        0.0000
     53 H         -28.2299  -33.3265    1.6732 H         1 UNL1        0.0000
     54 H         -27.1169  -35.0170    0.3638 H         1 UNL1        0.0000
     55 H         -25.1854  -38.9299    3.3386 H         1 UNL1        0.0000
@<TRIPOS>BOND
     1    1   18 1
     2    1   21 1
     3    1   17 am
     4    2   19 1
     5    2   20 1
     6    2   22 am
     7    3    4 1
     8    3   12 2
     9    4    5 am
    10    4   55 1
    11    5   29 2
    12    5    6 1
    13    6    7 ar
    14    6   11 ar
    15    7    8 ar
    16    7   33 1
    17    8   34 1
    18    8    9 ar
    19    9   10 ar
    20    9   35 1
    21   10   11 ar
    22   10   36 1
    23   11   12 1
    24   12   13 1
    25   13   37 1
    26   13   38 1
    27   13   14 1
    28   14   15 ar
    29   14   28 ar
    30   15   39 1
    31   15   16 ar
    32   16   26 ar
    33   16   17 1
    34   17   31 2
    35   18   19 1
    36   18   40 1
    37   18   41 1
    38   19   42 1
    39   19   43 1
    40   20   21 1
    41   20   45 1
    42   20   44 1
    43   21   46 1
    44   21   47 1
    45   22   30 2
    46   22   23 1
    47   23   25 1
    48   23   24 1
    49   23   48 1
    50   24   25 1
    51   24   49 1
    52   24   50 1
    53   25   51 1
    54   25   52 1
    55   26   27 ar
    56   26   32 1
    57   27   28 ar
    58   27   53 1
    59   28   54 1
@<TRIPOS>SUBSTRUCTURE
1 UNL1 1
@<TRIPOS>COMMENT
olaparib
PLANTSproteinTorsions
102
4661 260.7092
5386 154.9757
6210 98.4471
5890 288.9017
4461 298.0080
1390 80.3066
2824 1.7387
4339 113.7940
2732 154.8269
4792 54.6166
3407 124.0529
5134 32.1284
6916 67.0307
7370 214.0321
6038 77.1545
7225 122.3843
3592 350.3776
2064 303.2535
2488 104.2706
1253 52.3923
2069 124.4292
2569 126.4974
3058 143.5545
1748 154.6898
1162 233.7845
1509 72.9189
560 272.5464
1627 106.2328
1941 284.8748
3631 150.4720
2381 23.6720
4221 164.7232
4687 349.2662
6983 299.3346
6668 139.0607
7305 221.0546
8693 243.0833
8404 157.2037
9055 273.2432
7052 278.2204
4708 113.2348
2652 74.9112
4332 200.2270
3011 184.3371
2257 93.5155
2778 23.6280
2057 44.7260
192 100.8226
315 110.9417
1085 323.7171
1007 159.9843
1407 142.3243
4816 45.2699
3131 149.5182
4654 114.3983
5144 199.3424
117 60.2885
6 188.1066
259 289.0800
1979 344.7526
2609 272.2818
2623 226.6638
5910 260.5923
5937 214.5555
2062 62.7695
890 173.6637
5008 18.6919
8602 145.6025
8478 7.6060
8300 259.6643
7721 193.6378
8466 342.5286
7852 268.1998
5849 28.3087
6302 29.1822
7439 304.4183
6284 245.9254
6003 310.1469
7165 266.8433
7623 85.9893
8158 108.9154
8667 236.0883
9078 114.8486
8684 93.7638
7666 93.6663
4231 233.5164
1659 126.4364
489 259.3623
238 94.3705
46 219.2582
83 118.2680
254 222.7529
1066 196.1351
2112 234.9863
4047 81.6918
5402 182.2705
2544 198.7572
4670 233.5867
4426 35.8017
5656 189.3641
7040 223.3497
6282 279.5815
PLANTSmolcadARTstart hb
PLANTSmolcadARTstart HB
LINES
PLANTSmolcadARTstart HBCH
LINES
PLANTSmolcadARTstart HB-CHO
LINES
PLANTSmolcadARTend
PLANTSmolcadARTstart HB_WATER
LINES
PLANTSmolcadARTend

PLANTSmolcadARTend

