@<TRIPOS>MOLECULE
olaparib_entry_00001_conf_95
55 59 1
SMALL
NO_CHARGES


@<TRIPOS>ATOM
      1 N         -15.8431  -40.8798   -2.9258 N.am      1 UNL1        0.0000
      2 N         -17.2066  -40.0236   -4.9645 N.am      1 UNL1        0.0000
      3 N         -16.9745  -35.9253   -2.0060 N.2       1 UNL1        0.0000
      4 N         -16.6568  -35.2713   -3.0969 N.am      1 UNL1        0.0000
      5 C         -15.6202  -34.4246   -3.1708 C.2       1 UNL1        0.0000
      6 C         -14.8445  -34.2257   -2.0473 C.ar      1 UNL1        0.0000
      7 C         -13.7660  -33.3403   -2.0637 C.ar      1 UNL1        0.0000
      8 C         -13.0180  -33.1413   -0.9234 C.ar      1 UNL1        0.0000
      9 C         -13.3908  -33.8482    0.2003 C.ar      1 UNL1        0.0000
     10 C         -14.4586  -34.7295    0.2309 C.ar      1 UNL1        0.0000
     11 C         -15.1907  -34.9212   -0.9036 C.ar      1 UNL1        0.0000
     12 C         -16.2537  -35.7825   -0.8513 C.2       1 UNL1        0.0000
     13 C         -16.6711  -36.6152    0.2692 C.3       1 UNL1        0.0000
     14 C         -15.8582  -37.8614    0.3269 C.ar      1 UNL1        0.0000
     15 C         -16.2314  -38.8704   -0.5787 C.ar      1 UNL1        0.0000
     16 C         -15.5471  -40.0622   -0.5942 C.ar      1 UNL1        0.0000
     17 C         -15.9181  -41.1447   -1.5332 C.2       1 UNL1        0.0000
     18 C         -16.1882  -41.9002   -3.8621 C.3       1 UNL1        0.0000
     19 C         -16.6692  -41.3413   -5.1840 C.3       1 UNL1        0.0000
     20 C         -16.2802  -39.0023   -4.4638 C.3       1 UNL1        0.0000
     21 C         -15.4132  -39.5661   -3.3676 C.3       1 UNL1        0.0000
     22 C         -18.5465  -39.7089   -5.2091 C.2       1 UNL1        0.0000
     23 C         -19.5906  -40.6160   -5.6931 C.3       1 UNL1        0.0000
     24 C         -19.9712  -40.4779   -7.1499 C.3       1 UNL1        0.0000
     25 C         -20.9234  -40.1009   -6.1028 C.3       1 UNL1        0.0000
     26 C         -14.4914  -40.3366    0.2426 C.ar      1 UNL1        0.0000
     27 C         -14.1270  -39.3483    1.1287 C.ar      1 UNL1        0.0000
     28 C         -14.8237  -38.1315    1.1479 C.ar      1 UNL1        0.0000
     29 O         -15.2992  -33.7896   -4.2079 O.2       1 UNL1        0.0000
     30 O         -18.9229  -38.5021   -4.9922 O.2       1 UNL1        0.0000
     31 O         -16.2911  -42.2732   -1.1380 O.2       1 UNL1        0.0000
     32 F         -13.8440  -41.5369    0.1890 F         1 UNL1        0.0000
     33 H         -13.5276  -32.8343   -2.9309 H         1 UNL1        0.0000
     34 H         -12.2164  -32.4927   -0.9111 H         1 UNL1        0.0000
     35 H         -12.8449  -33.7128    1.0650 H         1 UNL1        0.0000
     36 H         -14.6972  -35.2344    1.0990 H         1 UNL1        0.0000
     37 H         -17.7030  -36.8730    0.1513 H         1 UNL1        0.0000
     38 H         -16.5274  -36.0686    1.1780 H         1 UNL1        0.0000
     39 H         -17.0170  -38.7166   -1.2296 H         1 UNL1        0.0000
     40 H         -16.9663  -42.5024   -3.4410 H         1 UNL1        0.0000
     41 H         -15.3050  -42.4735   -4.0555 H         1 UNL1        0.0000
     42 H         -17.4288  -41.9770   -5.5878 H         1 UNL1        0.0000
     43 H         -15.8531  -41.2902   -5.8745 H         1 UNL1        0.0000
     44 H         -16.8405  -38.1763   -4.0786 H         1 UNL1        0.0000
     45 H         -15.6525  -38.6798   -5.2681 H         1 UNL1        0.0000
     46 H         -15.4430  -38.8993   -2.5312 H         1 UNL1        0.0000
     47 H         -14.4243  -39.6683   -3.7612 H         1 UNL1        0.0000
     48 H         -19.2721  -41.3910   -5.0280 H         1 UNL1        0.0000
     49 H         -20.1455  -41.3516   -7.7427 H         1 UNL1        0.0000
     50 H         -19.5460  -39.9869   -8.0002 H         1 UNL1        0.0000
     51 H         -21.7965  -40.6977   -5.9399 H         1 UNL1        0.0000
     52 H         -21.4810  -39.2149   -5.8850 H         1 UNL1        0.0000
     53 H         -13.3402  -39.5033    1.7792 H         1 UNL1        0.0000
     54 H         -14.5303  -37.4073    1.8224 H         1 UNL1        0.0000
     55 H         -17.2067  -35.4096   -3.9021 H         1 UNL1        0.0000
@<TRIPOS>BOND
     1    1   18 1
     2    1   21 1
     3    1   17 am
     4    2   19 1
     5    2   20 1
     6    2   22 am
     7    3    4 1
     8    3   12 2
     9    4    5 am
    10    4   55 1
    11    5   29 2
    12    5    6 1
    13    6    7 ar
    14    6   11 ar
    15    7    8 ar
    16    7   33 1
    17    8   34 1
    18    8    9 ar
    19    9   10 ar
    20    9   35 1
    21   10   11 ar
    22   10   36 1
    23   11   12 1
    24   12   13 1
    25   13   37 1
    26   13   38 1
    27   13   14 1
    28   14   15 ar
    29   14   28 ar
    30   15   39 1
    31   15   16 ar
    32   16   26 ar
    33   16   17 1
    34   17   31 2
    35   18   19 1
    36   18   40 1
    37   18   41 1
    38   19   42 1
    39   19   43 1
    40   20   21 1
    41   20   45 1
    42   20   44 1
    43   21   46 1
    44   21   47 1
    45   22   30 2
    46   22   23 1
    47   23   25 1
    48   23   24 1
    49   23   48 1
    50   24   25 1
    51   24   49 1
    52   24   50 1
    53   25   51 1
    54   25   52 1
    55   26   27 ar
    56   26   32 1
    57   27   28 ar
    58   27   53 1
    59   28   54 1
@<TRIPOS>SUBSTRUCTURE
1 UNL1 1
@<TRIPOS>COMMENT
olaparib
PLANTSproteinTorsions
102
4661 183.4254
5386 55.6651
6210 210.4381
5890 141.5565
4461 177.9280
1390 271.3584
2824 70.0051
4339 353.3146
2732 10.3418
4792 138.3702
3407 80.7707
5134 251.9249
6916 254.0507
7370 43.5067
6038 8.8900
7225 53.4454
3592 12.2355
2064 166.9677
2488 91.2617
1253 10.1303
2069 268.4224
2569 236.3994
3058 70.6438
1748 36.2523
1162 73.0817
1509 97.8148
560 147.5185
1627 181.2110
1941 242.2910
3631 356.5028
2381 1.1084
4221 36.1260
4687 327.5125
6983 210.8996
6668 51.7802
7305 217.9481
8693 118.9077
8404 356.6675
9055 107.2509
7052 45.6442
4708 161.4617
2652 358.5294
4332 19.1103
3011 138.2846
2257 166.6511
2778 121.1906
2057 8.8680
192 65.5832
315 221.0592
1085 4.7232
1007 31.6190
1407 315.6744
4816 112.5577
3131 232.1463
4654 30.8824
5144 12.2952
117 40.2170
6 155.5780
259 113.2021
1979 265.0424
2609 258.1235
2623 25.2054
5910 318.9897
5937 23.0411
2062 151.1489
890 220.1144
5008 186.9811
8602 13.2805
8478 238.9615
8300 87.9276
7721 268.1523
8466 305.0946
7852 208.6563
5849 253.4013
6302 68.0882
7439 282.0440
6284 191.6711
6003 214.8188
7165 71.2577
7623 220.0305
8158 49.4732
8667 89.0558
9078 142.6848
8684 197.3282
7666 277.8468
4231 225.8237
1659 272.6537
489 226.3422
238 310.5632
46 294.8188
83 95.5259
254 277.6101
1066 124.5590
2112 170.3218
4047 97.3029
5402 170.8918
2544 224.8828
4670 74.7465
4426 108.9300
5656 131.7980
7040 147.4987
6282 266.8446
PLANTSmolcadARTstart hb
PLANTSmolcadARTstart HB
LINES
PLANTSmolcadARTstart HBCH
LINES
PLANTSmolcadARTstart HB-CHO
LINES
PLANTSmolcadARTend
PLANTSmolcadARTstart HB_WATER
LINES
PLANTSmolcadARTend

PLANTSmolcadARTend

