@<TRIPOS>MOLECULE
olaparib_entry_00001_conf_77
55 59 1
SMALL
NO_CHARGES


@<TRIPOS>ATOM
      1 N          -3.8200  -31.6107  -12.3204 N.am      1 UNL1        0.0000
      2 N          -3.1152  -29.2720  -13.2046 N.am      1 UNL1        0.0000
      3 N         -10.2903  -32.5334  -10.0895 N.2       1 UNL1        0.0000
      4 N         -11.2438  -33.4267  -10.1970 N.am      1 UNL1        0.0000
      5 C         -11.6111  -34.2343   -9.1922 C.2       1 UNL1        0.0000
      6 C         -10.9578  -34.1267   -7.9817 C.ar      1 UNL1        0.0000
      7 C         -11.2868  -34.9564   -6.9090 C.ar      1 UNL1        0.0000
      8 C         -10.6062  -34.8456   -5.7157 C.ar      1 UNL1        0.0000
      9 C          -9.6099  -33.8946   -5.6501 C.ar      1 UNL1        0.0000
     10 C          -9.2727  -33.0650   -6.7065 C.ar      1 UNL1        0.0000
     11 C          -9.9540  -33.1811   -7.8821 C.ar      1 UNL1        0.0000
     12 C          -9.5963  -32.3654   -8.9219 C.2       1 UNL1        0.0000
     13 C          -8.6081  -31.2947   -8.9148 C.3       1 UNL1        0.0000
     14 C          -7.2350  -31.8483   -9.0741 C.ar      1 UNL1        0.0000
     15 C          -6.7422  -31.8760  -10.3910 C.ar      1 UNL1        0.0000
     16 C          -5.4878  -32.3789  -10.6409 C.ar      1 UNL1        0.0000
     17 C          -4.9425  -32.4247  -12.0164 C.2       1 UNL1        0.0000
     18 C          -3.2632  -31.6314  -13.6343 C.3       1 UNL1        0.0000
     19 C          -2.5548  -30.3416  -13.9887 C.3       1 UNL1        0.0000
     20 C          -2.9694  -29.3679  -11.7480 C.3       1 UNL1        0.0000
     21 C          -3.2605  -30.7700  -11.2783 C.3       1 UNL1        0.0000
     22 C          -3.7734  -28.1825  -13.7825 C.2       1 UNL1        0.0000
     23 C          -4.0104  -27.9523  -15.2101 C.3       1 UNL1        0.0000
     24 C          -2.8806  -27.3039  -15.9776 C.3       1 UNL1        0.0000
     25 C          -4.1307  -26.5742  -15.7543 C.3       1 UNL1        0.0000
     26 C          -4.6621  -32.8692   -9.6572 C.ar      1 UNL1        0.0000
     27 C          -5.1455  -32.8417   -8.3686 C.ar      1 UNL1        0.0000
     28 C          -6.4253  -32.3302   -8.1102 C.ar      1 UNL1        0.0000
     29 O         -12.5236  -35.0959   -9.2756 O.2       1 UNL1        0.0000
     30 O          -4.2268  -27.2764  -12.9960 O.2       1 UNL1        0.0000
     31 O          -5.4377  -33.1525  -12.9073 O.2       1 UNL1        0.0000
     32 F          -3.4239  -33.3591   -9.9567 F         1 UNL1        0.0000
     33 H         -12.0411  -35.6535   -7.0089 H         1 UNL1        0.0000
     34 H         -10.8315  -35.4470   -4.9090 H         1 UNL1        0.0000
     35 H          -9.0871  -33.7961   -4.7662 H         1 UNL1        0.0000
     36 H          -8.5173  -32.3688   -6.6062 H         1 UNL1        0.0000
     37 H          -8.6688  -30.7654   -7.9868 H         1 UNL1        0.0000
     38 H          -8.8092  -30.6337   -9.7321 H         1 UNL1        0.0000
     39 H          -7.3209  -31.5200  -11.1674 H         1 UNL1        0.0000
     40 H          -4.0528  -31.7936  -14.3384 H         1 UNL1        0.0000
     41 H          -2.5377  -32.4181  -13.6655 H         1 UNL1        0.0000
     42 H          -2.6879  -30.1328  -15.0294 H         1 UNL1        0.0000
     43 H          -1.5087  -30.4339  -13.7821 H         1 UNL1        0.0000
     44 H          -3.6533  -28.6915  -11.2798 H         1 UNL1        0.0000
     45 H          -1.9632  -29.1178  -11.4834 H         1 UNL1        0.0000
     46 H          -3.9589  -30.7212  -10.4690 H         1 UNL1        0.0000
     47 H          -2.3321  -31.2071  -10.9781 H         1 UNL1        0.0000
     48 H          -4.6170  -28.8302  -15.2850 H         1 UNL1        0.0000
     49 H          -2.6314  -27.6513  -16.9587 H         1 UNL1        0.0000
     50 H          -1.8459  -27.1119  -15.7837 H         1 UNL1        0.0000
     51 H          -4.7878  -26.3835  -16.5770 H         1 UNL1        0.0000
     52 H          -4.3741  -25.6228  -15.3315 H         1 UNL1        0.0000
     53 H          -4.5651  -33.1978   -7.5924 H         1 UNL1        0.0000
     54 H          -6.7638  -32.3215   -7.1350 H         1 UNL1        0.0000
     55 H         -11.7139  -33.5078  -11.0586 H         1 UNL1        0.0000
@<TRIPOS>BOND
     1    1   18 1
     2    1   21 1
     3    1   17 am
     4    2   19 1
     5    2   20 1
     6    2   22 am
     7    3    4 1
     8    3   12 2
     9    4    5 am
    10    4   55 1
    11    5   29 2
    12    5    6 1
    13    6    7 ar
    14    6   11 ar
    15    7    8 ar
    16    7   33 1
    17    8   34 1
    18    8    9 ar
    19    9   10 ar
    20    9   35 1
    21   10   11 ar
    22   10   36 1
    23   11   12 1
    24   12   13 1
    25   13   37 1
    26   13   38 1
    27   13   14 1
    28   14   15 ar
    29   14   28 ar
    30   15   39 1
    31   15   16 ar
    32   16   26 ar
    33   16   17 1
    34   17   31 2
    35   18   19 1
    36   18   40 1
    37   18   41 1
    38   19   42 1
    39   19   43 1
    40   20   21 1
    41   20   45 1
    42   20   44 1
    43   21   46 1
    44   21   47 1
    45   22   30 2
    46   22   23 1
    47   23   25 1
    48   23   24 1
    49   23   48 1
    50   24   25 1
    51   24   49 1
    52   24   50 1
    53   25   51 1
    54   25   52 1
    55   26   27 ar
    56   26   32 1
    57   27   28 ar
    58   27   53 1
    59   28   54 1
@<TRIPOS>SUBSTRUCTURE
1 UNL1 1
@<TRIPOS>COMMENT
olaparib
PLANTSproteinTorsions
102
4661 210.1365
5386 223.3053
6210 197.2892
5890 240.6587
4461 152.9435
1390 0.6129
2824 164.5503
4339 4.7948
2732 125.0914
4792 103.9629
3407 115.9883
5134 107.0789
6916 141.4274
7370 11.7818
6038 58.5299
7225 273.8957
3592 38.8163
2064 173.0347
2488 184.7379
1253 24.6731
2069 107.5143
2569 135.9478
3058 81.3832
1748 337.9772
1162 199.1596
1509 259.2506
560 128.7392
1627 209.8977
1941 352.7781
3631 288.6602
2381 126.4114
4221 149.8091
4687 120.7537
6983 192.2787
6668 346.6365
7305 170.2429
8693 212.7226
8404 354.3946
9055 216.7764
7052 185.5647
4708 261.7530
2652 201.4779
4332 354.6784
3011 229.3471
2257 329.5425
2778 350.8224
2057 166.9763
192 72.3455
315 5.0752
1085 25.3968
1007 355.6702
1407 20.6244
4816 33.0916
3131 160.7754
4654 24.5170
5144 209.0884
117 132.4665
6 257.1408
259 300.1217
1979 94.8410
2609 121.5643
2623 171.2220
5910 316.8988
5937 232.8145
2062 109.9402
890 174.6272
5008 281.5939
8602 294.2071
8478 308.3878
8300 184.1235
7721 272.7039
8466 47.1628
7852 150.8749
5849 267.9472
6302 214.0291
7439 174.9364
6284 227.0322
6003 248.5539
7165 17.7943
7623 269.0764
8158 189.0201
8667 310.3283
9078 69.0578
8684 111.6530
7666 226.6028
4231 149.5779
1659 167.3348
489 160.7458
238 171.4876
46 284.3757
83 194.6976
254 340.4338
1066 16.2601
2112 230.3981
4047 195.2458
5402 255.1998
2544 25.2405
4670 83.6327
4426 125.1849
5656 99.2026
7040 353.0027
6282 213.0704
PLANTSmolcadARTstart hb
PLANTSmolcadARTstart HB
LINES
PLANTSmolcadARTstart HBCH
LINES
PLANTSmolcadARTstart HB-CHO
LINES
PLANTSmolcadARTend
PLANTSmolcadARTstart HB_WATER
LINES
PLANTSmolcadARTend

PLANTSmolcadARTend

