@<TRIPOS>MOLECULE
olaparib_entry_00001_conf_63
55 59 1
SMALL
NO_CHARGES


@<TRIPOS>ATOM
      1 N         -15.3317  -42.1267   -1.9234 N.am      1 UNL1        0.0000
      2 N         -15.7888  -44.4586   -0.8738 N.am      1 UNL1        0.0000
      3 N         -16.2400  -34.4547   -0.0271 N.2       1 UNL1        0.0000
      4 N         -16.7091  -33.6007    0.8499 N.am      1 UNL1        0.0000
      5 C         -17.9581  -33.6547    1.3334 C.2       1 UNL1        0.0000
      6 C         -18.7983  -34.6557    0.8907 C.ar      1 UNL1        0.0000
      7 C         -20.1141  -34.7461    1.3462 C.ar      1 UNL1        0.0000
      8 C         -20.9419  -35.7417    0.8740 C.ar      1 UNL1        0.0000
      9 C         -20.4063  -36.6149   -0.0490 C.ar      1 UNL1        0.0000
     10 C         -19.1028  -36.5368   -0.5100 C.ar      1 UNL1        0.0000
     11 C         -18.2911  -35.5494   -0.0345 C.ar      1 UNL1        0.0000
     12 C         -17.0107  -35.4757   -0.5138 C.2       1 UNL1        0.0000
     13 C         -16.3493  -36.3933   -1.4322 C.3       1 UNL1        0.0000
     14 C         -15.9136  -37.6254   -0.7184 C.ar      1 UNL1        0.0000
     15 C         -15.4419  -38.6657   -1.5386 C.ar      1 UNL1        0.0000
     16 C         -15.0265  -39.8473   -0.9728 C.ar      1 UNL1        0.0000
     17 C         -14.5281  -40.9621   -1.8096 C.2       1 UNL1        0.0000
     18 C         -14.8869  -43.2205   -2.7252 C.3       1 UNL1        0.0000
     19 C         -15.4590  -44.5467   -2.2725 C.3       1 UNL1        0.0000
     20 C         -16.8144  -43.4814   -0.4924 C.3       1 UNL1        0.0000
     21 C         -16.5976  -42.1772   -1.2158 C.3       1 UNL1        0.0000
     22 C         -15.1725  -45.2564    0.0947 C.2       1 UNL1        0.0000
     23 C         -14.1283  -46.2605   -0.1251 C.3       1 UNL1        0.0000
     24 C         -14.6030  -47.6413   -0.5178 C.3       1 UNL1        0.0000
     25 C         -13.9788  -47.4231    0.7891 C.3       1 UNL1        0.0000
     26 C         -15.0432  -40.0818    0.3817 C.ar      1 UNL1        0.0000
     27 C         -15.5052  -39.0628    1.1836 C.ar      1 UNL1        0.0000
     28 C         -15.9307  -37.8563    0.6095 C.ar      1 UNL1        0.0000
     29 O         -18.4255  -32.8459    2.1755 O.2       1 UNL1        0.0000
     30 O         -15.5464  -45.1083    1.3127 O.2       1 UNL1        0.0000
     31 O         -13.4315  -40.9065   -2.4123 O.2       1 UNL1        0.0000
     32 F         -14.6204  -41.2736    0.8952 F         1 UNL1        0.0000
     33 H         -20.4679  -34.0671    2.0381 H         1 UNL1        0.0000
     34 H         -21.9176  -35.8291    1.1960 H         1 UNL1        0.0000
     35 H         -21.0096  -37.3668   -0.4163 H         1 UNL1        0.0000
     36 H         -18.7499  -37.2155   -1.2029 H         1 UNL1        0.0000
     37 H         -15.4936  -35.9111   -1.8567 H         1 UNL1        0.0000
     38 H         -17.0397  -36.6683   -2.2024 H         1 UNL1        0.0000
     39 H         -15.4080  -38.5424   -2.5624 H         1 UNL1        0.0000
     40 H         -13.8192  -43.2718   -2.6725 H         1 UNL1        0.0000
     41 H         -15.2257  -43.0466   -3.7257 H         1 UNL1        0.0000
     42 H         -14.7358  -45.3203   -2.4237 H         1 UNL1        0.0000
     43 H         -16.3379  -44.7748   -2.8392 H         1 UNL1        0.0000
     44 H         -16.7639  -43.3107    0.5625 H         1 UNL1        0.0000
     45 H         -17.7764  -43.8672   -0.7585 H         1 UNL1        0.0000
     46 H         -16.6192  -41.3818   -0.5002 H         1 UNL1        0.0000
     47 H         -17.3753  -42.0805   -1.9431 H         1 UNL1        0.0000
     48 H         -13.4492  -45.5216   -0.4955 H         1 UNL1        0.0000
     49 H         -14.0828  -48.1910   -1.2744 H         1 UNL1        0.0000
     50 H         -15.5300  -48.0556   -0.8553 H         1 UNL1        0.0000
     51 H         -13.0057  -47.8227    0.9856 H         1 UNL1        0.0000
     52 H         -14.2709  -47.6223    1.7982 H         1 UNL1        0.0000
     53 H         -15.5380  -39.1873    2.2081 H         1 UNL1        0.0000
     54 H         -16.2730  -37.1085    1.2334 H         1 UNL1        0.0000
     55 H         -16.1139  -32.8842    1.1698 H         1 UNL1        0.0000
@<TRIPOS>BOND
     1    1   18 1
     2    1   21 1
     3    1   17 am
     4    2   19 1
     5    2   20 1
     6    2   22 am
     7    3    4 1
     8    3   12 2
     9    4    5 am
    10    4   55 1
    11    5   29 2
    12    5    6 1
    13    6    7 ar
    14    6   11 ar
    15    7    8 ar
    16    7   33 1
    17    8   34 1
    18    8    9 ar
    19    9   10 ar
    20    9   35 1
    21   10   11 ar
    22   10   36 1
    23   11   12 1
    24   12   13 1
    25   13   37 1
    26   13   38 1
    27   13   14 1
    28   14   15 ar
    29   14   28 ar
    30   15   39 1
    31   15   16 ar
    32   16   26 ar
    33   16   17 1
    34   17   31 2
    35   18   19 1
    36   18   40 1
    37   18   41 1
    38   19   42 1
    39   19   43 1
    40   20   21 1
    41   20   45 1
    42   20   44 1
    43   21   46 1
    44   21   47 1
    45   22   30 2
    46   22   23 1
    47   23   25 1
    48   23   24 1
    49   23   48 1
    50   24   25 1
    51   24   49 1
    52   24   50 1
    53   25   51 1
    54   25   52 1
    55   26   27 ar
    56   26   32 1
    57   27   28 ar
    58   27   53 1
    59   28   54 1
@<TRIPOS>SUBSTRUCTURE
1 UNL1 1
@<TRIPOS>COMMENT
olaparib
PLANTSproteinTorsions
102
4661 65.1911
5386 24.3269
6210 309.3053
5890 0.7695
4461 216.7901
1390 96.3257
2824 177.3265
4339 162.7116
2732 205.7612
4792 348.4408
3407 44.7048
5134 191.2041
6916 86.5934
7370 74.9911
6038 162.1723
7225 356.9606
3592 215.2189
2064 64.8653
2488 176.5249
1253 53.0078
2069 241.7446
2569 86.5856
3058 5.9597
1748 292.9224
1162 348.4691
1509 126.9470
560 118.1868
1627 124.5052
1941 349.7274
3631 85.2716
2381 85.2829
4221 356.4382
4687 314.4353
6983 212.0873
6668 59.4419
7305 349.9056
8693 123.2328
8404 137.7430
9055 178.2992
7052 56.0390
4708 183.9830
2652 5.5831
4332 296.4557
3011 189.8064
2257 100.9866
2778 148.0220
2057 231.3225
192 30.3908
315 243.0415
1085 9.6045
1007 50.2614
1407 146.7177
4816 163.5717
3131 1.3621
4654 5.3466
5144 1.3807
117 85.6772
6 132.6374
259 115.8138
1979 84.4913
2609 181.5272
2623 41.7037
5910 189.4743
5937 106.6475
2062 130.7369
890 121.8372
5008 315.1024
8602 289.6451
8478 218.1031
8300 85.0269
7721 122.3318
8466 191.1663
7852 265.6312
5849 240.8885
6302 125.9595
7439 206.6055
6284 127.7806
6003 30.8278
7165 75.1022
7623 138.8744
8158 177.1633
8667 255.4333
9078 105.3073
8684 171.7477
7666 273.9712
4231 109.8365
1659 294.0617
489 166.3037
238 187.6631
46 203.4469
83 46.6968
254 70.2776
1066 165.1790
2112 177.3944
4047 256.7394
5402 167.4748
2544 47.5051
4670 61.3660
4426 218.8584
5656 70.9719
7040 248.1894
6282 302.7569
PLANTSmolcadARTstart hb
PLANTSmolcadARTstart HB
LINES
-13.4315 -40.9065 -2.41225 -13.084 -39.387 -3.151 0 255 0 5
PLANTSmolcadARTstart HBCH
LINES
PLANTSmolcadARTstart HB-CHO
LINES
PLANTSmolcadARTend
PLANTSmolcadARTstart HB_WATER
LINES
PLANTSmolcadARTend

PLANTSmolcadARTend

