MODEL 1
REMARK VINA RESULT:      -6.3      0.000      0.000
REMARK  3 active torsions:
REMARK  status: ('A' for Active; 'I' for Inactive)
REMARK    1  A    between atoms: C_2  and  O_11 
REMARK    2  A    between atoms: C_3  and  O_11 
REMARK    3  A    between atoms: C_8  and  C_9 
ROOT
HETATM    1  C   UNL     1      11.027  15.113   1.395  1.00  0.00     0.096 A 
HETATM    2  C   UNL     1      10.080  14.326   2.015  1.00  0.00     0.038 A 
HETATM    3  C   UNL     1       8.778  14.208   1.571  1.00  0.00     0.003 A 
HETATM    4  C   UNL     1       8.408  14.915   0.452  1.00  0.00     0.001 A 
HETATM    5  C   UNL     1       9.315  15.717  -0.206  1.00  0.00     0.021 A 
HETATM    6  C   UNL     1      10.622  15.810   0.274  1.00  0.00     0.074 A 
ENDROOT
BRANCH   1   7
HETATM    7  O   UNL     1      12.326  15.259   1.801  1.00  0.00    -0.278 OA
BRANCH   7   8
HETATM    8  C   UNL     1      12.748  15.886   2.939  1.00  0.00     0.260 C 
HETATM    9  C   UNL     1      12.194  17.186   3.395  1.00  0.00     0.126 C 
HETATM   10  O   UNL     1      13.653  15.268   3.579  1.00  0.00    -0.265 OA
ENDBRANCH   7   8
ENDBRANCH   1   7
BRANCH   6  11
HETATM   11  C   UNL     1      11.550  16.670  -0.452  1.00  0.00     0.212 C 
HETATM   12  O   UNL     1      11.188  17.795  -0.881  1.00  0.00    -0.644 OA
HETATM   13  O   UNL     1      12.856  16.281  -0.698  1.00  0.00    -0.644 OA
ENDBRANCH   6  11
TORSDOF 3
ENDMDL
MODEL 2
REMARK VINA RESULT:      -6.1      1.617      3.747
REMARK  3 active torsions:
REMARK  status: ('A' for Active; 'I' for Inactive)
REMARK    1  A    between atoms: C_2  and  O_11 
REMARK    2  A    between atoms: C_3  and  O_11 
REMARK    3  A    between atoms: C_8  and  C_9 
ROOT
HETATM    1  C   UNL     1      11.129  15.358   1.849  1.00  0.00     0.096 A 
HETATM    2  C   UNL     1      11.122  15.088   3.201  1.00  0.00     0.038 A 
HETATM    3  C   UNL     1      11.892  15.776   4.118  1.00  0.00     0.003 A 
HETATM    4  C   UNL     1      12.706  16.781   3.657  1.00  0.00     0.001 A 
HETATM    5  C   UNL     1      12.751  17.093   2.316  1.00  0.00     0.021 A 
HETATM    6  C   UNL     1      11.959  16.375   1.419  1.00  0.00     0.074 A 
ENDROOT
BRANCH   1   7
HETATM    7  O   UNL     1      10.384  14.703   0.906  1.00  0.00    -0.278 OA
BRANCH   7   8
HETATM    8  C   UNL     1       9.023  14.729   0.795  1.00  0.00     0.260 C 
HETATM    9  C   UNL     1       8.129  13.935   1.676  1.00  0.00     0.126 C 
HETATM   10  O   UNL     1       8.581  15.487  -0.121  1.00  0.00    -0.265 OA
ENDBRANCH   7   8
ENDBRANCH   1   7
BRANCH   6  11
HETATM   11  C   UNL     1      12.036  16.736   0.008  1.00  0.00     0.212 C 
HETATM   12  O   UNL     1      12.988  16.337  -0.711  1.00  0.00    -0.644 OA
HETATM   13  O   UNL     1      11.072  17.530  -0.590  1.00  0.00    -0.644 OA
ENDBRANCH   6  11
TORSDOF 3
ENDMDL
MODEL 3
REMARK VINA RESULT:      -6.1      1.331      3.188
REMARK  3 active torsions:
REMARK  status: ('A' for Active; 'I' for Inactive)
REMARK    1  A    between atoms: C_2  and  O_11 
REMARK    2  A    between atoms: C_3  and  O_11 
REMARK    3  A    between atoms: C_8  and  C_9 
ROOT
HETATM    1  C   UNL     1      10.332  15.045   1.309  1.00  0.00     0.096 A 
HETATM    2  C   UNL     1       9.037  14.803   0.905  1.00  0.00     0.038 A 
HETATM    3  C   UNL     1       7.966  14.743   1.775  1.00  0.00     0.003 A 
HETATM    4  C   UNL     1       8.207  14.933   3.114  1.00  0.00     0.001 A 
HETATM    5  C   UNL     1       9.483  15.179   3.572  1.00  0.00     0.021 A 
HETATM    6  C   UNL     1      10.540  15.232   2.662  1.00  0.00     0.074 A 
ENDROOT
BRANCH   1   7
HETATM    7  O   UNL     1      11.421  15.113   0.483  1.00  0.00    -0.278 OA
BRANCH   7   8
HETATM    8  C   UNL     1      11.948  16.250  -0.062  1.00  0.00     0.260 C 
HETATM    9  C   UNL     1      11.109  17.318  -0.662  1.00  0.00     0.126 C 
HETATM   10  O   UNL     1      13.214  16.322  -0.013  1.00  0.00    -0.265 OA
ENDBRANCH   7   8
ENDBRANCH   1   7
BRANCH   6  11
HETATM   11  C   UNL     1      11.874  15.495   3.188  1.00  0.00     0.212 C 
HETATM   12  O   UNL     1      12.249  16.667   3.447  1.00  0.00    -0.644 OA
HETATM   13  O   UNL     1      12.776  14.470   3.420  1.00  0.00    -0.644 OA
ENDBRANCH   6  11
TORSDOF 3
ENDMDL
MODEL 4
REMARK VINA RESULT:      -6.1      2.719      3.529
REMARK  3 active torsions:
REMARK  status: ('A' for Active; 'I' for Inactive)
REMARK    1  A    between atoms: C_2  and  O_11 
REMARK    2  A    between atoms: C_3  and  O_11 
REMARK    3  A    between atoms: C_8  and  C_9 
ROOT
HETATM    1  C   UNL     1       9.382  14.865   2.968  1.00  0.00     0.096 A 
HETATM    2  C   UNL     1       9.443  15.185   4.308  1.00  0.00     0.038 A 
HETATM    3  C   UNL     1       8.336  15.521   5.062  1.00  0.00     0.003 A 
HETATM    4  C   UNL     1       7.110  15.538   4.442  1.00  0.00     0.001 A 
HETATM    5  C   UNL     1       6.992  15.225   3.105  1.00  0.00     0.021 A 
HETATM    6  C   UNL     1       8.134  14.891   2.376  1.00  0.00     0.074 A 
ENDROOT
BRANCH   1   7
HETATM    7  O   UNL     1      10.451  14.527   2.184  1.00  0.00    -0.278 OA
BRANCH   7   8
HETATM    8  C   UNL     1      11.578  15.276   1.993  1.00  0.00     0.260 C 
HETATM    9  C   UNL     1      11.641  16.400   1.025  1.00  0.00     0.126 C 
HETATM   10  O   UNL     1      12.567  14.936   2.710  1.00  0.00    -0.265 OA
ENDBRANCH   7   8
ENDBRANCH   1   7
BRANCH   6  11
HETATM   11  C   UNL     1       7.965  14.567   0.965  1.00  0.00     0.212 C 
HETATM   12  O   UNL     1       8.443  15.310   0.069  1.00  0.00    -0.644 OA
HETATM   13  O   UNL     1       7.276  13.438   0.558  1.00  0.00    -0.644 OA
ENDBRANCH   6  11
TORSDOF 3
ENDMDL
MODEL 5
REMARK VINA RESULT:      -6.0      1.886      3.287
REMARK  3 active torsions:
REMARK  status: ('A' for Active; 'I' for Inactive)
REMARK    1  A    between atoms: C_2  and  O_11 
REMARK    2  A    between atoms: C_3  and  O_11 
REMARK    3  A    between atoms: C_8  and  C_9 
ROOT
HETATM    1  C   UNL     1      10.687  15.027   1.666  1.00  0.00     0.096 A 
HETATM    2  C   UNL     1      10.970  15.524   0.412  1.00  0.00     0.038 A 
HETATM    3  C   UNL     1      10.007  15.761  -0.549  1.00  0.00     0.003 A 
HETATM    4  C   UNL     1       8.698  15.486  -0.236  1.00  0.00     0.001 A 
HETATM    5  C   UNL     1       8.359  14.988   1.003  1.00  0.00     0.021 A 
HETATM    6  C   UNL     1       9.361  14.761   1.948  1.00  0.00     0.074 A 
ENDROOT
BRANCH   1   7
HETATM    7  O   UNL     1      11.609  14.777   2.647  1.00  0.00    -0.278 OA
BRANCH   7   8
HETATM    8  C   UNL     1      12.508  15.672   3.153  1.00  0.00     0.260 C 
HETATM    9  C   UNL     1      12.167  17.093   3.417  1.00  0.00     0.126 C 
HETATM   10  O   UNL     1      13.660  15.193   3.380  1.00  0.00    -0.265 OA
ENDBRANCH   7   8
ENDBRANCH   1   7
BRANCH   6  11
HETATM   11  C   UNL     1       8.960  14.233   3.247  1.00  0.00     0.212 C 
HETATM   12  O   UNL     1       8.543  13.053   3.365  1.00  0.00    -0.644 OA
HETATM   13  O   UNL     1       9.021  15.007   4.393  1.00  0.00    -0.644 OA
ENDBRANCH   6  11
TORSDOF 3
ENDMDL
MODEL 6
REMARK VINA RESULT:      -5.9      2.422      3.647
REMARK  3 active torsions:
REMARK  status: ('A' for Active; 'I' for Inactive)
REMARK    1  A    between atoms: C_2  and  O_11 
REMARK    2  A    between atoms: C_3  and  O_11 
REMARK    3  A    between atoms: C_8  and  C_9 
ROOT
HETATM    1  C   UNL     1      10.309  15.199   2.666  1.00  0.00     0.096 A 
HETATM    2  C   UNL     1      10.777  15.394   1.384  1.00  0.00     0.038 A 
HETATM    3  C   UNL     1       9.972  15.341   0.264  1.00  0.00     0.003 A 
HETATM    4  C   UNL     1       8.635  15.080   0.438  1.00  0.00     0.001 A 
HETATM    5  C   UNL     1       8.114  14.877   1.698  1.00  0.00     0.021 A 
HETATM    6  C   UNL     1       8.960  14.938   2.806  1.00  0.00     0.074 A 
ENDROOT
BRANCH   1   7
HETATM    7  O   UNL     1      11.070  15.242   3.803  1.00  0.00    -0.278 OA
BRANCH   7   8
HETATM    8  C   UNL     1      12.331  15.758   3.909  1.00  0.00     0.260 C 
HETATM    9  C   UNL     1      12.624  17.205   3.750  1.00  0.00     0.126 C 
HETATM   10  O   UNL     1      13.234  14.902   4.155  1.00  0.00    -0.265 OA
ENDBRANCH   7   8
ENDBRANCH   1   7
BRANCH   6  11
HETATM   11  C   UNL     1       8.369  14.718   4.121  1.00  0.00     0.212 C 
HETATM   12  O   UNL     1       8.137  15.681   4.895  1.00  0.00    -0.644 OA
HETATM   13  O   UNL     1       8.045  13.448   4.566  1.00  0.00    -0.644 OA
ENDBRANCH   6  11
TORSDOF 3
ENDMDL
MODEL 7
REMARK VINA RESULT:      -5.9      2.190      3.654
REMARK  3 active torsions:
REMARK  status: ('A' for Active; 'I' for Inactive)
REMARK    1  A    between atoms: C_2  and  O_11 
REMARK    2  A    between atoms: C_3  and  O_11 
REMARK    3  A    between atoms: C_8  and  C_9 
ROOT
HETATM    1  C   UNL     1      10.726  15.058   1.760  1.00  0.00     0.096 A 
HETATM    2  C   UNL     1      10.068  15.134   0.551  1.00  0.00     0.038 A 
HETATM    3  C   UNL     1      10.476  15.947  -0.488  1.00  0.00     0.003 A 
HETATM    4  C   UNL     1      11.596  16.721  -0.305  1.00  0.00     0.001 A 
HETATM    5  C   UNL     1      12.292  16.683   0.884  1.00  0.00     0.021 A 
HETATM    6  C   UNL     1      11.848  15.849   1.911  1.00  0.00     0.074 A 
ENDROOT
BRANCH   1   7
HETATM    7  O   UNL     1      10.358  14.268   2.815  1.00  0.00    -0.278 OA
BRANCH   7   8
HETATM    8  C   UNL     1       9.140  14.271   3.436  1.00  0.00     0.260 C 
HETATM    9  C   UNL     1       8.750  15.296   4.437  1.00  0.00     0.126 C 
HETATM   10  O   UNL     1       8.368  13.327   3.089  1.00  0.00    -0.265 OA
ENDBRANCH   7   8
ENDBRANCH   1   7
BRANCH   6  11
HETATM   11  C   UNL     1      12.613  15.839   3.153  1.00  0.00     0.212 C 
HETATM   12  O   UNL     1      12.409  16.701   4.045  1.00  0.00    -0.644 OA
HETATM   13  O   UNL     1      13.589  14.887   3.395  1.00  0.00    -0.644 OA
ENDBRANCH   6  11
TORSDOF 3
ENDMDL
MODEL 8
REMARK VINA RESULT:      -5.4      2.237      3.740
REMARK  3 active torsions:
REMARK  status: ('A' for Active; 'I' for Inactive)
REMARK    1  A    between atoms: C_2  and  O_11 
REMARK    2  A    between atoms: C_3  and  O_11 
REMARK    3  A    between atoms: C_8  and  C_9 
ROOT
HETATM    1  C   UNL     1      11.442  14.569   2.905  1.00  0.00     0.096 A 
HETATM    2  C   UNL     1      12.159  14.936   4.024  1.00  0.00     0.038 A 
HETATM    3  C   UNL     1      12.641  16.212   4.234  1.00  0.00     0.003 A 
HETATM    4  C   UNL     1      12.393  17.165   3.276  1.00  0.00     0.001 A 
HETATM    5  C   UNL     1      11.681  16.852   2.139  1.00  0.00     0.021 A 
HETATM    6  C   UNL     1      11.210  15.551   1.961  1.00  0.00     0.074 A 
ENDROOT
BRANCH   1   7
HETATM    7  O   UNL     1      10.946  13.318   2.656  1.00  0.00    -0.278 OA
BRANCH   7   8
HETATM    8  C   UNL     1      10.137  12.593   3.485  1.00  0.00     0.260 C 
HETATM    9  C   UNL     1       8.818  13.086   3.955  1.00  0.00     0.126 C 
HETATM   10  O   UNL     1      10.603  11.462   3.822  1.00  0.00    -0.265 OA
ENDBRANCH   7   8
ENDBRANCH   1   7
BRANCH   6  11
HETATM   11  C   UNL     1      10.462  15.262   0.744  1.00  0.00     0.212 C 
HETATM   12  O   UNL     1       9.220  15.065   0.779  1.00  0.00    -0.644 OA
HETATM   13  O   UNL     1      11.085  15.191  -0.490  1.00  0.00    -0.644 OA
ENDBRANCH   6  11
TORSDOF 3
ENDMDL
MODEL 9
REMARK VINA RESULT:      -5.3      2.735      5.115
REMARK  3 active torsions:
REMARK  status: ('A' for Active; 'I' for Inactive)
REMARK    1  A    between atoms: C_2  and  O_11 
REMARK    2  A    between atoms: C_3  and  O_11 
REMARK    3  A    between atoms: C_8  and  C_9 
ROOT
HETATM    1  C   UNL     1      10.698  14.853   2.621  1.00  0.00     0.096 A 
HETATM    2  C   UNL     1      11.080  16.089   2.146  1.00  0.00     0.038 A 
HETATM    3  C   UNL     1      12.052  16.867   2.742  1.00  0.00     0.003 A 
HETATM    4  C   UNL     1      12.671  16.381   3.869  1.00  0.00     0.001 A 
HETATM    5  C   UNL     1      12.328  15.151   4.386  1.00  0.00     0.021 A 
HETATM    6  C   UNL     1      11.340  14.394   3.755  1.00  0.00     0.074 A 
ENDROOT
BRANCH   1   7
HETATM    7  O   UNL     1       9.741  14.049   2.062  1.00  0.00    -0.278 OA
BRANCH   7   8
HETATM    8  C   UNL     1       8.398  14.298   2.035  1.00  0.00     0.260 C 
HETATM    9  C   UNL     1       7.672  14.922   3.171  1.00  0.00     0.126 C 
HETATM   10  O   UNL     1       7.818  13.955   0.961  1.00  0.00    -0.265 OA
ENDBRANCH   7   8
ENDBRANCH   1   7
BRANCH   6  11
HETATM   11  C   UNL     1      11.007  13.098   4.334  1.00  0.00     0.212 C 
HETATM   12  O   UNL     1      10.168  13.001   5.265  1.00  0.00    -0.644 OA
HETATM   13  O   UNL     1      11.601  11.930   3.885  1.00  0.00    -0.644 OA
ENDBRANCH   6  11
TORSDOF 3
ENDMDL
MODEL 10
REMARK VINA RESULT:      -5.2      2.896      3.857
REMARK  3 active torsions:
REMARK  status: ('A' for Active; 'I' for Inactive)
REMARK    1  A    between atoms: C_2  and  O_11 
REMARK    2  A    between atoms: C_3  and  O_11 
REMARK    3  A    between atoms: C_8  and  C_9 
ROOT
HETATM    1  C   UNL     1       9.541  14.423   4.359  1.00  0.00     0.096 A 
HETATM    2  C   UNL     1       8.561  14.465   5.328  1.00  0.00     0.038 A 
HETATM    3  C   UNL     1       7.263  14.867   5.081  1.00  0.00     0.003 A 
HETATM    4  C   UNL     1       6.933  15.246   3.802  1.00  0.00     0.001 A 
HETATM    5  C   UNL     1       7.874  15.222   2.796  1.00  0.00     0.021 A 
HETATM    6  C   UNL     1       9.175  14.809   3.084  1.00  0.00     0.074 A 
ENDROOT
BRANCH   1   7
HETATM    7  O   UNL     1      10.837  14.032   4.558  1.00  0.00    -0.278 OA
BRANCH   7   8
HETATM    8  C   UNL     1      11.261  12.762   4.832  1.00  0.00     0.260 C 
HETATM    9  C   UNL     1      11.206  11.663   3.835  1.00  0.00     0.126 C 
HETATM   10  O   UNL     1      11.708  12.596   6.007  1.00  0.00    -0.265 OA
ENDBRANCH   7   8
ENDBRANCH   1   7
BRANCH   6  11
HETATM   11  C   UNL     1      10.140  14.799   1.990  1.00  0.00     0.212 C 
HETATM   12  O   UNL     1      10.234  13.809   1.220  1.00  0.00    -0.644 OA
HETATM   13  O   UNL     1      10.985  15.871   1.759  1.00  0.00    -0.644 OA
ENDBRANCH   6  11
TORSDOF 3
ENDMDL
MODEL 11
REMARK VINA RESULT:      -5.1      4.095      5.268
REMARK  3 active torsions:
REMARK  status: ('A' for Active; 'I' for Inactive)
REMARK    1  A    between atoms: C_2  and  O_11 
REMARK    2  A    between atoms: C_3  and  O_11 
REMARK    3  A    between atoms: C_8  and  C_9 
ROOT
HETATM    1  C   UNL     1       9.312  13.625   4.253  1.00  0.00     0.096 A 
HETATM    2  C   UNL     1      10.569  13.557   4.814  1.00  0.00     0.038 A 
HETATM    3  C   UNL     1      11.618  14.371   4.433  1.00  0.00     0.003 A 
HETATM    4  C   UNL     1      11.394  15.296   3.442  1.00  0.00     0.001 A 
HETATM    5  C   UNL     1      10.156  15.406   2.848  1.00  0.00     0.021 A 
HETATM    6  C   UNL     1       9.121  14.565   3.259  1.00  0.00     0.074 A 
ENDROOT
BRANCH   1   7
HETATM    7  O   UNL     1       8.245  12.840   4.598  1.00  0.00    -0.278 OA
BRANCH   7   8
HETATM    8  C   UNL     1       7.684  12.747   5.841  1.00  0.00     0.260 C 
HETATM    9  C   UNL     1       6.825  13.812   6.417  1.00  0.00     0.126 C 
HETATM   10  O   UNL     1       7.955  11.676   6.464  1.00  0.00    -0.265 OA
ENDBRANCH   7   8
ENDBRANCH   1   7
BRANCH   6  11
HETATM   11  C   UNL     1       7.827  14.715   2.604  1.00  0.00     0.212 C 
HETATM   12  O   UNL     1       6.901  15.372   3.144  1.00  0.00    -0.644 OA
HETATM   13  O   UNL     1       7.568  14.141   1.371  1.00  0.00    -0.644 OA
ENDBRANCH   6  11
TORSDOF 3
ENDMDL
MODEL 12
REMARK VINA RESULT:      -4.9      3.926      5.203
REMARK  3 active torsions:
REMARK  status: ('A' for Active; 'I' for Inactive)
REMARK    1  A    between atoms: C_2  and  O_11 
REMARK    2  A    between atoms: C_3  and  O_11 
REMARK    3  A    between atoms: C_8  and  C_9 
ROOT
HETATM    1  C   UNL     1      11.955  14.016   4.504  1.00  0.00     0.096 A 
HETATM    2  C   UNL     1      12.892  14.954   4.125  1.00  0.00     0.038 A 
HETATM    3  C   UNL     1      12.568  16.155   3.525  1.00  0.00     0.003 A 
HETATM    4  C   UNL     1      11.241  16.427   3.294  1.00  0.00     0.001 A 
HETATM    5  C   UNL     1      10.264  15.525   3.654  1.00  0.00     0.021 A 
HETATM    6  C   UNL     1      10.631  14.322   4.259  1.00  0.00     0.074 A 
ENDROOT
BRANCH   1   7
HETATM    7  O   UNL     1      12.232  12.816   5.101  1.00  0.00    -0.278 OA
BRANCH   7   8
HETATM    8  C   UNL     1      12.873  11.758   4.521  1.00  0.00     0.260 C 
HETATM    9  C   UNL     1      12.153  10.672   3.810  1.00  0.00     0.126 C 
HETATM   10  O   UNL     1      14.136  11.778   4.636  1.00  0.00    -0.265 OA
ENDBRANCH   7   8
ENDBRANCH   1   7
BRANCH   6  11
HETATM   11  C   UNL     1       9.566  13.395   4.624  1.00  0.00     0.212 C 
HETATM   12  O   UNL     1       9.138  12.545   3.802  1.00  0.00    -0.644 OA
HETATM   13  O   UNL     1       8.987  13.417   5.881  1.00  0.00    -0.644 OA
ENDBRANCH   6  11
TORSDOF 3
ENDMDL
MODEL 13
REMARK VINA RESULT:      -4.9      3.973      5.427
REMARK  3 active torsions:
REMARK  status: ('A' for Active; 'I' for Inactive)
REMARK    1  A    between atoms: C_2  and  O_11 
REMARK    2  A    between atoms: C_3  and  O_11 
REMARK    3  A    between atoms: C_8  and  C_9 
ROOT
HETATM    1  C   UNL     1      10.457  13.767   4.706  1.00  0.00     0.096 A 
HETATM    2  C   UNL     1      11.835  13.751   4.707  1.00  0.00     0.038 A 
HETATM    3  C   UNL     1      12.608  14.716   4.092  1.00  0.00     0.003 A 
HETATM    4  C   UNL     1      11.967  15.745   3.445  1.00  0.00     0.001 A 
HETATM    5  C   UNL     1      10.591  15.810   3.414  1.00  0.00     0.021 A 
HETATM    6  C   UNL     1       9.844  14.815   4.047  1.00  0.00     0.074 A 
ENDROOT
BRANCH   1   7
HETATM    7  O   UNL     1       9.652  12.833   5.302  1.00  0.00    -0.278 OA
BRANCH   7   8
HETATM    8  C   UNL     1       9.366  11.590   4.813  1.00  0.00     0.260 C 
HETATM    9  C   UNL     1      10.405  10.552   4.595  1.00  0.00     0.126 C 
HETATM   10  O   UNL     1       8.139  11.391   4.561  1.00  0.00    -0.265 OA
ENDBRANCH   7   8
ENDBRANCH   1   7
BRANCH   6  11
HETATM   11  C   UNL     1       8.391  14.921   3.991  1.00  0.00     0.212 C 
HETATM   12  O   UNL     1       7.732  14.318   3.105  1.00  0.00    -0.644 OA
HETATM   13  O   UNL     1       7.684  15.686   4.903  1.00  0.00    -0.644 OA
ENDBRANCH   6  11
TORSDOF 3
ENDMDL
MODEL 14
REMARK VINA RESULT:      -4.8      3.953      5.265
REMARK  3 active torsions:
REMARK  status: ('A' for Active; 'I' for Inactive)
REMARK    1  A    between atoms: C_2  and  O_11 
REMARK    2  A    between atoms: C_3  and  O_11 
REMARK    3  A    between atoms: C_8  and  C_9 
ROOT
HETATM    1  C   UNL     1       8.650  14.128   4.873  1.00  0.00     0.096 A 
HETATM    2  C   UNL     1       7.470  14.841   4.882  1.00  0.00     0.038 A 
HETATM    3  C   UNL     1       6.876  15.344   3.741  1.00  0.00     0.003 A 
HETATM    4  C   UNL     1       7.496  15.123   2.535  1.00  0.00     0.001 A 
HETATM    5  C   UNL     1       8.677  14.416   2.469  1.00  0.00     0.021 A 
HETATM    6  C   UNL     1       9.247  13.923   3.644  1.00  0.00     0.074 A 
ENDROOT
BRANCH   1   7
HETATM    7  O   UNL     1       9.273  13.612   5.977  1.00  0.00    -0.278 OA
BRANCH   7   8
HETATM    8  C   UNL     1       8.768  12.657   6.813  1.00  0.00     0.260 C 
HETATM    9  C   UNL     1       8.271  11.344   6.328  1.00  0.00     0.126 C 
HETATM   10  O   UNL     1       8.757  12.980   8.039  1.00  0.00    -0.265 OA
ENDBRANCH   7   8
ENDBRANCH   1   7
BRANCH   6  11
HETATM   11  C   UNL     1      10.497  13.181   3.530  1.00  0.00     0.212 C 
HETATM   12  O   UNL     1      11.601  13.779   3.466  1.00  0.00    -0.644 OA
HETATM   13  O   UNL     1      10.516  11.797   3.485  1.00  0.00    -0.644 OA
ENDBRANCH   6  11
TORSDOF 3
ENDMDL
MODEL 15
REMARK VINA RESULT:      -4.7     14.315     15.483
REMARK  3 active torsions:
REMARK  status: ('A' for Active; 'I' for Inactive)
REMARK    1  A    between atoms: C_2  and  O_11 
REMARK    2  A    between atoms: C_3  and  O_11 
REMARK    3  A    between atoms: C_8  and  C_9 
ROOT
HETATM    1  C   UNL     1       5.397   2.904  -6.075  1.00  0.00     0.096 A 
HETATM    2  C   UNL     1       6.085   1.761  -6.425  1.00  0.00     0.038 A 
HETATM    3  C   UNL     1       6.875   1.664  -7.553  1.00  0.00     0.003 A 
HETATM    4  C   UNL     1       6.979   2.764  -8.369  1.00  0.00     0.001 A 
HETATM    5  C   UNL     1       6.313   3.932  -8.066  1.00  0.00     0.021 A 
HETATM    6  C   UNL     1       5.523   3.992  -6.917  1.00  0.00     0.074 A 
ENDROOT
BRANCH   1   7
HETATM    7  O   UNL     1       4.604   3.044  -4.968  1.00  0.00    -0.278 OA
BRANCH   7   8
HETATM    8  C   UNL     1       5.032   3.079  -3.671  1.00  0.00     0.260 C 
HETATM    9  C   UNL     1       5.503   1.871  -2.947  1.00  0.00     0.126 C 
HETATM   10  O   UNL     1       4.996   4.227  -3.133  1.00  0.00    -0.265 OA
ENDBRANCH   7   8
ENDBRANCH   1   7
BRANCH   6  11
HETATM   11  C   UNL     1       4.836   5.245  -6.633  1.00  0.00     0.212 C 
HETATM   12  O   UNL     1       5.300   6.063  -5.798  1.00  0.00    -0.644 OA
HETATM   13  O   UNL     1       3.651   5.581  -7.266  1.00  0.00    -0.644 OA
ENDBRANCH   6  11
TORSDOF 3
ENDMDL
MODEL 16
REMARK VINA RESULT:      -4.4     16.630     17.701
REMARK  3 active torsions:
REMARK  status: ('A' for Active; 'I' for Inactive)
REMARK    1  A    between atoms: C_2  and  O_11 
REMARK    2  A    between atoms: C_3  and  O_11 
REMARK    3  A    between atoms: C_8  and  C_9 
ROOT
HETATM    1  C   UNL     1      -2.433  23.250   9.710  1.00  0.00     0.096 A 
HETATM    2  C   UNL     1      -2.326  24.607   9.927  1.00  0.00     0.038 A 
HETATM    3  C   UNL     1      -1.413  25.169  10.797  1.00  0.00     0.003 A 
HETATM    4  C   UNL     1      -0.567  24.330  11.482  1.00  0.00     0.001 A 
HETATM    5  C   UNL     1      -0.631  22.966  11.301  1.00  0.00     0.021 A 
HETATM    6  C   UNL     1      -1.567  22.434  10.414  1.00  0.00     0.074 A 
ENDROOT
BRANCH   1   7
HETATM    7  O   UNL     1      -3.321  22.650   8.859  1.00  0.00    -0.278 OA
BRANCH   7   8
HETATM    8  C   UNL     1      -3.273  22.681   7.494  1.00  0.00     0.260 C 
HETATM    9  C   UNL     1      -3.779  23.827   6.697  1.00  0.00     0.126 C 
HETATM   10  O   UNL     1      -2.761  21.651   6.959  1.00  0.00    -0.265 OA
ENDBRANCH   7   8
ENDBRANCH   1   7
BRANCH   6  11
HETATM   11  C   UNL     1      -1.601  20.986  10.252  1.00  0.00     0.212 C 
HETATM   12  O   UNL     1      -0.849  20.409   9.426  1.00  0.00    -0.644 OA
HETATM   13  O   UNL     1      -2.459  20.194  10.997  1.00  0.00    -0.644 OA
ENDBRANCH   6  11
TORSDOF 3
ENDMDL
MODEL 17
REMARK VINA RESULT:      -4.4     10.375     11.788
REMARK  3 active torsions:
REMARK  status: ('A' for Active; 'I' for Inactive)
REMARK    1  A    between atoms: C_2  and  O_11 
REMARK    2  A    between atoms: C_3  and  O_11 
REMARK    3  A    between atoms: C_8  and  C_9 
ROOT
HETATM    1  C   UNL     1       8.438  15.976  11.822  1.00  0.00     0.096 A 
HETATM    2  C   UNL     1       9.726  16.397  12.079  1.00  0.00     0.038 A 
HETATM    3  C   UNL     1      10.846  15.643  11.790  1.00  0.00     0.003 A 
HETATM    4  C   UNL     1      10.665  14.408  11.216  1.00  0.00     0.001 A 
HETATM    5  C   UNL     1       9.401  13.938  10.938  1.00  0.00     0.021 A 
HETATM    6  C   UNL     1       8.293  14.729  11.245  1.00  0.00     0.074 A 
ENDROOT
BRANCH   1   7
HETATM    7  O   UNL     1       7.301  16.689  12.092  1.00  0.00    -0.278 OA
BRANCH   7   8
HETATM    8  C   UNL     1       6.807  16.975  13.333  1.00  0.00     0.260 C 
HETATM    9  C   UNL     1       5.698  16.207  13.954  1.00  0.00     0.126 C 
HETATM   10  O   UNL     1       7.371  17.951  13.915  1.00  0.00    -0.265 OA
ENDBRANCH   7   8
ENDBRANCH   1   7
BRANCH   6  11
HETATM   11  C   UNL     1       6.972  14.195  10.934  1.00  0.00     0.212 C 
HETATM   12  O   UNL     1       6.329  13.526  11.783  1.00  0.00    -0.644 OA
HETATM   13  O   UNL     1       6.380  14.399   9.699  1.00  0.00    -0.644 OA
ENDBRANCH   6  11
TORSDOF 3
ENDMDL
MODEL 18
REMARK VINA RESULT:      -4.4     16.198     17.122
REMARK  3 active torsions:
REMARK  status: ('A' for Active; 'I' for Inactive)
REMARK    1  A    between atoms: C_2  and  O_11 
REMARK    2  A    between atoms: C_3  and  O_11 
REMARK    3  A    between atoms: C_8  and  C_9 
ROOT
HETATM    1  C   UNL     1      -2.929  22.388   8.296  1.00  0.00     0.096 A 
HETATM    2  C   UNL     1      -2.867  23.394   9.237  1.00  0.00     0.038 A 
HETATM    3  C   UNL     1      -3.191  24.710   8.967  1.00  0.00     0.003 A 
HETATM    4  C   UNL     1      -3.595  25.030   7.694  1.00  0.00     0.001 A 
HETATM    5  C   UNL     1      -3.675  24.064   6.716  1.00  0.00     0.021 A 
HETATM    6  C   UNL     1      -3.339  22.745   7.026  1.00  0.00     0.074 A 
ENDROOT
BRANCH   1   7
HETATM    7  O   UNL     1      -2.618  21.074   8.519  1.00  0.00    -0.278 OA
BRANCH   7   8
HETATM    8  C   UNL     1      -2.005  20.570   9.630  1.00  0.00     0.260 C 
HETATM    9  C   UNL     1      -2.758  20.015  10.783  1.00  0.00     0.126 C 
HETATM   10  O   UNL     1      -0.737  20.612   9.600  1.00  0.00    -0.265 OA
ENDBRANCH   7   8
ENDBRANCH   1   7
BRANCH   6  11
HETATM   11  C   UNL     1      -3.437  21.753   5.962  1.00  0.00     0.212 C 
HETATM   12  O   UNL     1      -4.405  20.951   5.912  1.00  0.00    -0.644 OA
HETATM   13  O   UNL     1      -2.474  21.655   4.972  1.00  0.00    -0.644 OA
ENDBRANCH   6  11
TORSDOF 3
ENDMDL
MODEL 19
REMARK VINA RESULT:      -4.3     14.886     16.496
REMARK  3 active torsions:
REMARK  status: ('A' for Active; 'I' for Inactive)
REMARK    1  A    between atoms: C_2  and  O_11 
REMARK    2  A    between atoms: C_3  and  O_11 
REMARK    3  A    between atoms: C_8  and  C_9 
ROOT
HETATM    1  C   UNL     1       0.108  16.009 -10.042  1.00  0.00     0.096 A 
HETATM    2  C   UNL     1       1.279  16.246  -9.354  1.00  0.00     0.038 A 
HETATM    3  C   UNL     1       2.302  15.325  -9.251  1.00  0.00     0.003 A 
HETATM    4  C   UNL     1       2.143  14.107  -9.867  1.00  0.00     0.001 A 
HETATM    5  C   UNL     1       0.993  13.818 -10.569  1.00  0.00     0.021 A 
HETATM    6  C   UNL     1      -0.020  14.775 -10.650  1.00  0.00     0.074 A 
ENDROOT
BRANCH   1   7
HETATM    7  O   UNL     1      -0.930  16.891 -10.169  1.00  0.00    -0.278 OA
BRANCH   7   8
HETATM    8  C   UNL     1      -1.666  17.421  -9.146  1.00  0.00     0.260 C 
HETATM    9  C   UNL     1      -1.723  18.878  -8.867  1.00  0.00     0.126 C 
HETATM   10  O   UNL     1      -2.298  16.567  -8.453  1.00  0.00    -0.265 OA
ENDBRANCH   7   8
ENDBRANCH   1   7
BRANCH   6  11
HETATM   11  C   UNL     1      -1.220  14.429 -11.401  1.00  0.00     0.212 C 
HETATM   12  O   UNL     1      -1.272  14.589 -12.647  1.00  0.00    -0.644 OA
HETATM   13  O   UNL     1      -2.343  13.914 -10.776  1.00  0.00    -0.644 OA
ENDBRANCH   6  11
TORSDOF 3
ENDMDL
MODEL 20
REMARK VINA RESULT:      -4.3     16.686     17.346
REMARK  3 active torsions:
REMARK  status: ('A' for Active; 'I' for Inactive)
REMARK    1  A    between atoms: C_2  and  O_11 
REMARK    2  A    between atoms: C_3  and  O_11 
REMARK    3  A    between atoms: C_8  and  C_9 
ROOT
HETATM    1  C   UNL     1       0.012  22.671  11.706  1.00  0.00     0.096 A 
HETATM    2  C   UNL     1      -0.417  21.511  11.096  1.00  0.00     0.038 A 
HETATM    3  C   UNL     1      -1.512  21.452  10.256  1.00  0.00     0.003 A 
HETATM    4  C   UNL     1      -2.209  22.612  10.018  1.00  0.00     0.001 A 
HETATM    5  C   UNL     1      -1.823  23.799  10.601  1.00  0.00     0.021 A 
HETATM    6  C   UNL     1      -0.711  23.818  11.445  1.00  0.00     0.074 A 
ENDROOT
BRANCH   1   7
HETATM    7  O   UNL     1       1.089  22.775  12.544  1.00  0.00    -0.278 OA
BRANCH   7   8
HETATM    8  C   UNL     1       1.519  21.821  13.423  1.00  0.00     0.260 C 
HETATM    9  C   UNL     1       0.692  21.340  14.558  1.00  0.00     0.126 C 
HETATM   10  O   UNL     1       2.685  21.376  13.191  1.00  0.00    -0.265 OA
ENDBRANCH   7   8
ENDBRANCH   1   7
BRANCH   6  11
HETATM   11  C   UNL     1      -0.337  25.095  12.042  1.00  0.00     0.212 C 
HETATM   12  O   UNL     1       0.381  25.916  11.416  1.00  0.00    -0.644 OA
HETATM   13  O   UNL     1      -0.753  25.450  13.314  1.00  0.00    -0.644 OA
ENDBRANCH   6  11
TORSDOF 3
ENDMDL
